
     RDKit          3D

 31 34  0  0  0  0  0  0  0  0999 V2000
   17.3418   29.4618  196.1339 C   0  0  0  0  0  0  0  0  0  0  0  0
   18.8132   29.3269  196.4813 C   0  0  0  0  0  0  0  0  0  0  0  0
   19.1418   30.1367  197.5416 O   0  0  0  0  0  0  0  0  0  0  0  0
   18.1235   30.9127  198.0327 C   0  0  0  0  0  0  0  0  0  0  0  0
   16.8608   30.1369  198.3388 C   0  0  0  0  0  0  0  0  0  0  0  0
   16.5661   29.1597  197.3155 N   0  0  0  0  0  4  0  0  0  0  0  0
   15.1624   29.1952  197.0134 C   0  0  0  0  0  0  0  0  0  0  0  0
   14.7735   28.2983  195.8619 C   0  0  0  0  0  0  0  0  0  0  0  0
   13.6243   27.4185  196.3337 C   0  0  0  0  0  0  0  0  0  0  0  0
   12.4348   28.1391  196.2558 O   0  0  0  0  0  0  0  0  0  0  0  0
   11.2205   27.6635  195.8491 C   0  0  0  0  0  0  0  0  0  0  0  0
   10.1099   28.4543  196.0552 C   0  0  0  0  0  0  0  0  0  0  0  0
    8.8687   28.0023  195.6562 C   0  0  0  0  0  0  0  0  0  0  0  0
   10.2624   29.7056  196.6677 O   0  0  0  0  0  0  0  0  0  0  0  0
    9.1750   30.6087  196.6177 C   0  0  0  0  0  0  0  0  0  0  0  0
   11.0319   26.4259  195.2375 C   0  0  0  0  0  0  0  0  0  0  0  0
    9.7879   25.9848  194.8430 C   0  0  0  0  0  0  0  0  0  0  0  0
    8.6814   26.7687  195.0467 C   0  0  0  0  0  0  0  0  0  0  0  0
    7.4636   26.3449  194.6663 N   0  0  0  0  0  0  0  0  0  0  0  0
    7.2645   25.1535  194.0769 C   0  0  0  0  0  0  0  0  0  0  0  0
    8.3330   24.3890  193.8765 N   0  0  0  0  0  0  0  0  0  0  0  0
    9.5950   24.7470  194.2325 C   0  0  0  0  0  0  0  0  0  0  0  0
   10.6949   23.9023  193.9700 N   0  0  0  0  0  0  0  0  0  0  0  0
   10.6476   22.8970  192.9786 C   0  0  0  0  0  0  0  0  0  0  0  0
    9.4874   22.4672  192.3972 C   0  0  0  0  0  0  0  0  0  0  0  0
    9.4838   21.4798  191.4051 C   0  0  0  0  0  0  0  0  0  0  0  0
    7.9843   20.9363  190.6653 Cl  0  0  0  0  0  0  0  0  0  0  0  0
   10.6515   20.8995  190.9739 C   0  0  0  0  0  0  0  0  0  0  0  0
   10.6526   19.9429  190.0131 F   0  0  0  0  0  0  0  0  0  0  0  0
   11.8273   21.3200  191.5487 C   0  0  0  0  0  0  0  0  0  0  0  0
   11.8292   22.2898  192.5225 C   0  0  0  0  0  0  0  0  0  0  0  0
 20 19  2  0
 20 21  1  0
 18 13  1  0
 18 17  2  0
 18 19  1  0
 17 16  1  0
 17 22  1  0
 22 21  2  0
 22 23  1  0
 15 14  1  0
 30 28  1  0
 30 31  2  0
 31 24  1  0
 25 24  2  0
 25 26  1  0
 13 12  2  0
 16 11  2  0
  8  7  1  0
  8  9  1  0
  9 10  1  0
  2  1  1  0
  2  3  1  0
  4  3  1  0
  4  5  1  0
  7  6  1  0
  1  6  1  0
  5  6  1  0
 28 26  2  0
 28 29  1  0
 26 27  1  0
 24 23  1  0
 12 11  1  0
 12 14  1  0
 11 10  1  0
M  CHG  1   6   1
M  END
$$$$
