
     RDKit          3D

 31 34  0  0  0  0  0  0  0  0999 V2000
   16.3102   30.4615  198.2093 C   0  0  0  0  0  0  0  0  0  0  0  0
   17.6088   31.2472  198.1911 C   0  0  0  0  0  0  0  0  0  0  0  0
   18.6871   30.4068  198.0532 O   0  0  0  0  0  0  0  0  0  0  0  0
   18.3931   29.0683  198.0045 C   0  0  0  0  0  0  0  0  0  0  0  0
   17.3234   28.7168  196.9935 C   0  0  0  0  0  0  0  0  0  0  0  0
   16.2391   29.6725  197.0004 N   0  0  0  0  0  4  0  0  0  0  0  0
   14.9869   28.9723  196.9344 C   0  0  0  0  0  0  0  0  0  0  0  0
   14.8467   28.1080  195.7036 C   0  0  0  0  0  0  0  0  0  0  0  0
   13.6422   27.2013  195.9147 C   0  0  0  0  0  0  0  0  0  0  0  0
   12.4839   27.9748  195.9250 O   0  0  0  0  0  0  0  0  0  0  0  0
   11.2098   27.5351  195.7022 C   0  0  0  0  0  0  0  0  0  0  0  0
   10.1647   28.3142  196.1517 C   0  0  0  0  0  0  0  0  0  0  0  0
    8.8659   27.8976  195.9428 C   0  0  0  0  0  0  0  0  0  0  0  0
   10.4415   29.5179  196.8141 O   0  0  0  0  0  0  0  0  0  0  0  0
    9.3514   30.2750  197.3032 C   0  0  0  0  0  0  0  0  0  0  0  0
   10.8980   26.3452  195.0478 C   0  0  0  0  0  0  0  0  0  0  0  0
    9.5973   25.9391  194.8446 C   0  0  0  0  0  0  0  0  0  0  0  0
    8.5558   26.7115  195.2904 C   0  0  0  0  0  0  0  0  0  0  0  0
    7.2837   26.3217  195.0977 N   0  0  0  0  0  0  0  0  0  0  0  0
    6.9660   25.1764  194.4701 C   0  0  0  0  0  0  0  0  0  0  0  0
    7.9711   24.4232  194.0353 N   0  0  0  0  0  0  0  0  0  0  0  0
    9.2814   24.7491  194.1919 C   0  0  0  0  0  0  0  0  0  0  0  0
   10.3054   23.9202  193.6851 N   0  0  0  0  0  0  0  0  0  0  0  0
   10.0506   22.9188  192.7218 C   0  0  0  0  0  0  0  0  0  0  0  0
    9.1782   23.0794  191.6816 C   0  0  0  0  0  0  0  0  0  0  0  0
    8.9658   22.0684  190.7372 C   0  0  0  0  0  0  0  0  0  0  0  0
    7.8410   22.2883  189.4038 Cl  0  0  0  0  0  0  0  0  0  0  0  0
    9.6280   20.8680  190.8180 C   0  0  0  0  0  0  0  0  0  0  0  0
    9.4253   19.8861  189.9053 F   0  0  0  0  0  0  0  0  0  0  0  0
   10.5086   20.6899  191.8584 C   0  0  0  0  0  0  0  0  0  0  0  0
   10.7163   21.6836  192.7849 C   0  0  0  0  0  0  0  0  0  0  0  0
 20 19  2  0
 20 21  1  0
 18 13  1  0
 18 17  2  0
 18 19  1  0
 17 16  1  0
 17 22  1  0
 22 21  2  0
 22 23  1  0
 15 14  1  0
 30 28  1  0
 30 31  2  0
 31 24  1  0
 25 24  2  0
 25 26  1  0
 13 12  2  0
 16 11  2  0
  8  7  1  0
  8  9  1  0
  9 10  1  0
  2  1  1  0
  2  3  1  0
  4  3  1  0
  4  5  1  0
  7  6  1  0
  1  6  1  0
  5  6  1  0
 28 26  2  0
 28 29  1  0
 26 27  1  0
 24 23  1  0
 12 11  1  0
 12 14  1  0
 11 10  1  0
M  CHG  1   6   1
M  END
$$$$
