
     RDKit          3D

 31 34  0  0  0  0  0  0  0  0999 V2000
   16.4077   29.7907  197.6176 C   0  0  0  0  0  0  0  0  0  0  0  0
   17.7627   30.4411  197.8296 C   0  0  0  0  0  0  0  0  0  0  0  0
   18.3541   29.9760  198.9794 O   0  0  0  0  0  0  0  0  0  0  0  0
   17.6129   29.0806  199.7068 C   0  0  0  0  0  0  0  0  0  0  0  0
   17.0804   27.9247  198.8880 C   0  0  0  0  0  0  0  0  0  0  0  0
   16.5895   28.3569  197.5992 N   0  0  0  0  0  4  0  0  0  0  0  0
   15.3435   27.6996  197.3195 C   0  0  0  0  0  0  0  0  0  0  0  0
   14.9292   27.7906  195.8697 C   0  0  0  0  0  0  0  0  0  0  0  0
   13.7217   26.8833  195.6799 C   0  0  0  0  0  0  0  0  0  0  0  0
   12.5651   27.5866  196.0080 O   0  0  0  0  0  0  0  0  0  0  0  0
   11.2780   27.1691  195.8200 C   0  0  0  0  0  0  0  0  0  0  0  0
   10.2605   27.9486  196.3283 C   0  0  0  0  0  0  0  0  0  0  0  0
    8.9495   27.5542  196.1557 C   0  0  0  0  0  0  0  0  0  0  0  0
   10.5772   29.1300  197.0125 O   0  0  0  0  0  0  0  0  0  0  0  0
    9.5123   29.9265  197.4946 C   0  0  0  0  0  0  0  0  0  0  0  0
   10.9267   26.0017  195.1455 C   0  0  0  0  0  0  0  0  0  0  0  0
    9.6142   25.6177  194.9789 C   0  0  0  0  0  0  0  0  0  0  0  0
    8.6000   26.3904  195.4833 C   0  0  0  0  0  0  0  0  0  0  0  0
    7.3167   26.0220  195.3266 N   0  0  0  0  0  0  0  0  0  0  0  0
    6.9611   24.8984  194.6802 C   0  0  0  0  0  0  0  0  0  0  0  0
    7.9396   24.1450  194.1889 N   0  0  0  0  0  0  0  0  0  0  0  0
    9.2589   24.4501  194.3063 C   0  0  0  0  0  0  0  0  0  0  0  0
   10.2526   23.6227  193.7402 N   0  0  0  0  0  0  0  0  0  0  0  0
    9.9439   22.6236  192.7904 C   0  0  0  0  0  0  0  0  0  0  0  0
    9.0452   22.8017  191.7757 C   0  0  0  0  0  0  0  0  0  0  0  0
    8.7791   21.7920  190.8435 C   0  0  0  0  0  0  0  0  0  0  0  0
    7.6211   22.0344  189.5428 Cl  0  0  0  0  0  0  0  0  0  0  0  0
    9.4126   20.5753  190.9113 C   0  0  0  0  0  0  0  0  0  0  0  0
    9.1578   19.5947  190.0104 F   0  0  0  0  0  0  0  0  0  0  0  0
   10.3188   20.3796  191.9261 C   0  0  0  0  0  0  0  0  0  0  0  0
   10.5794   21.3721  192.8405 C   0  0  0  0  0  0  0  0  0  0  0  0
 20 19  2  0
 20 21  1  0
 18 13  1  0
 18 17  2  0
 18 19  1  0
 17 16  1  0
 17 22  1  0
 22 21  2  0
 22 23  1  0
 15 14  1  0
 30 28  1  0
 30 31  2  0
 31 24  1  0
 25 24  2  0
 25 26  1  0
 13 12  2  0
 16 11  2  0
  8  7  1  0
  8  9  1  0
  9 10  1  0
  2  1  1  0
  2  3  1  0
  4  3  1  0
  4  5  1  0
  7  6  1  0
  1  6  1  0
  5  6  1  0
 28 26  2  0
 28 29  1  0
 26 27  1  0
 24 23  1  0
 12 11  1  0
 12 14  1  0
 11 10  1  0
M  CHG  1   6   1
M  END
$$$$
