
     RDKit          3D

 31 34  0  0  0  0  0  0  0  0999 V2000
   16.8615   29.8276  197.2921 C   0  0  0  0  0  0  0  0  0  0  0  0
   18.2178   30.5000  197.1801 C   0  0  0  0  0  0  0  0  0  0  0  0
   19.0677   30.0536  198.1631 O   0  0  0  0  0  0  0  0  0  0  0  0
   18.5307   29.1534  199.0473 C   0  0  0  0  0  0  0  0  0  0  0  0
   17.8415   27.9828  198.3804 C   0  0  0  0  0  0  0  0  0  0  0  0
   17.0576   28.3966  197.2389 N   0  0  0  0  0  4  0  0  0  0  0  0
   15.7917   27.7185  197.2596 C   0  0  0  0  0  0  0  0  0  0  0  0
   14.9612   27.9599  196.0212 C   0  0  0  0  0  0  0  0  0  0  0  0
   13.7212   27.0825  196.1223 C   0  0  0  0  0  0  0  0  0  0  0  0
   12.5973   27.8407  195.8028 O   0  0  0  0  0  0  0  0  0  0  0  0
   11.3241   27.3760  195.6317 C   0  0  0  0  0  0  0  0  0  0  0  0
   10.2849   28.1210  196.1477 C   0  0  0  0  0  0  0  0  0  0  0  0
    8.9871   27.6786  195.9922 C   0  0  0  0  0  0  0  0  0  0  0  0
   10.5664   29.3167  196.8224 O   0  0  0  0  0  0  0  0  0  0  0  0
    9.4859   30.0315  197.3902 C   0  0  0  0  0  0  0  0  0  0  0  0
   11.0077   26.1931  194.9671 C   0  0  0  0  0  0  0  0  0  0  0  0
    9.7081   25.7611  194.8175 C   0  0  0  0  0  0  0  0  0  0  0  0
    8.6724   26.4994  195.3296 C   0  0  0  0  0  0  0  0  0  0  0  0
    7.4015   26.0840  195.1895 N   0  0  0  0  0  0  0  0  0  0  0  0
    7.0795   24.9450  194.5529 C   0  0  0  0  0  0  0  0  0  0  0  0
    8.0789   24.2247  194.0541 N   0  0  0  0  0  0  0  0  0  0  0  0
    9.3876   24.5778  194.1548 C   0  0  0  0  0  0  0  0  0  0  0  0
   10.4041   23.7838  193.5815 N   0  0  0  0  0  0  0  0  0  0  0  0
   10.1248   22.7932  192.6139 C   0  0  0  0  0  0  0  0  0  0  0  0
    9.2360   22.9700  191.5903 C   0  0  0  0  0  0  0  0  0  0  0  0
    8.9992   21.9693  190.6407 C   0  0  0  0  0  0  0  0  0  0  0  0
    7.8535   22.2100  189.3290 Cl  0  0  0  0  0  0  0  0  0  0  0  0
    9.6531   20.7629  190.6995 C   0  0  0  0  0  0  0  0  0  0  0  0
    9.4268   19.7909  189.7818 F   0  0  0  0  0  0  0  0  0  0  0  0
   10.5499   20.5685  191.7230 C   0  0  0  0  0  0  0  0  0  0  0  0
   10.7815   21.5522  192.6545 C   0  0  0  0  0  0  0  0  0  0  0  0
 20 19  2  0
 20 21  1  0
 18 13  1  0
 18 17  2  0
 18 19  1  0
 17 16  1  0
 17 22  1  0
 22 21  2  0
 22 23  1  0
 15 14  1  0
 30 28  1  0
 30 31  2  0
 31 24  1  0
 25 24  2  0
 25 26  1  0
 13 12  2  0
 16 11  2  0
  8  7  1  0
  8  9  1  0
  9 10  1  0
  2  1  1  0
  2  3  1  0
  4  3  1  0
  4  5  1  0
  7  6  1  0
  1  6  1  0
  5  6  1  0
 28 26  2  0
 28 29  1  0
 26 27  1  0
 24 23  1  0
 12 11  1  0
 12 14  1  0
 11 10  1  0
M  CHG  1   6   1
M  END
$$$$
