
     RDKit          3D

 31 34  0  0  0  0  0  0  0  0999 V2000
   17.5045   28.6999  197.4746 C   0  0  0  0  0  0  0  0  0  0  0  0
   18.5005   29.7156  198.0042 C   0  0  0  0  0  0  0  0  0  0  0  0
   19.1143   30.3830  196.9718 O   0  0  0  0  0  0  0  0  0  0  0  0
   18.7525   29.9851  195.7104 C   0  0  0  0  0  0  0  0  0  0  0  0
   17.2557   29.9456  195.4910 C   0  0  0  0  0  0  0  0  0  0  0  0
   16.5578   29.3899  196.6281 N   0  0  0  0  0  4  0  0  0  0  0  0
   15.5453   28.4812  196.1678 C   0  0  0  0  0  0  0  0  0  0  0  0
   14.6221   28.0057  197.2648 C   0  0  0  0  0  0  0  0  0  0  0  0
   13.5365   27.1588  196.6155 C   0  0  0  0  0  0  0  0  0  0  0  0
   12.4568   27.9743  196.2849 O   0  0  0  0  0  0  0  0  0  0  0  0
   11.1895   27.5635  195.9823 C   0  0  0  0  0  0  0  0  0  0  0  0
   10.1333   28.3264  196.4337 C   0  0  0  0  0  0  0  0  0  0  0  0
    8.8409   27.9382  196.1454 C   0  0  0  0  0  0  0  0  0  0  0  0
   10.3923   29.4848  197.1787 O   0  0  0  0  0  0  0  0  0  0  0  0
    9.2943   30.2904  197.5610 C   0  0  0  0  0  0  0  0  0  0  0  0
   10.8952   26.4188  195.2447 C   0  0  0  0  0  0  0  0  0  0  0  0
    9.6008   26.0408  194.9626 C   0  0  0  0  0  0  0  0  0  0  0  0
    8.5482   26.7971  195.4100 C   0  0  0  0  0  0  0  0  0  0  0  0
    7.2821   26.4343  195.1406 N   0  0  0  0  0  0  0  0  0  0  0  0
    6.9812   25.3326  194.4320 C   0  0  0  0  0  0  0  0  0  0  0  0
    7.9971   24.5952  193.9953 N   0  0  0  0  0  0  0  0  0  0  0  0
    9.3023   24.8958  194.2264 C   0  0  0  0  0  0  0  0  0  0  0  0
   10.3395   24.0870  193.7141 N   0  0  0  0  0  0  0  0  0  0  0  0
   10.0896   23.0353  192.8047 C   0  0  0  0  0  0  0  0  0  0  0  0
    9.2554   23.1533  191.7280 C   0  0  0  0  0  0  0  0  0  0  0  0
    9.0469   22.0921  190.8394 C   0  0  0  0  0  0  0  0  0  0  0  0
    7.9715   22.2575  189.4584 Cl  0  0  0  0  0  0  0  0  0  0  0  0
    9.6746   20.8831  191.0144 C   0  0  0  0  0  0  0  0  0  0  0  0
    9.4756   19.8527  190.1561 F   0  0  0  0  0  0  0  0  0  0  0  0
   10.5165   20.7475  192.0925 C   0  0  0  0  0  0  0  0  0  0  0  0
   10.7204   21.7905  192.9641 C   0  0  0  0  0  0  0  0  0  0  0  0
 20 19  2  0
 20 21  1  0
 18 13  1  0
 18 17  2  0
 18 19  1  0
 17 16  1  0
 17 22  1  0
 22 21  2  0
 22 23  1  0
 15 14  1  0
 30 28  1  0
 30 31  2  0
 31 24  1  0
 25 24  2  0
 25 26  1  0
 13 12  2  0
 16 11  2  0
  8  7  1  0
  8  9  1  0
  9 10  1  0
  2  1  1  0
  2  3  1  0
  4  3  1  0
  4  5  1  0
  7  6  1  0
  1  6  1  0
  5  6  1  0
 28 26  2  0
 28 29  1  0
 26 27  1  0
 24 23  1  0
 12 11  1  0
 12 14  1  0
 11 10  1  0
M  CHG  1   6   1
M  END
$$$$
