
     RDKit          3D

 31 34  0  0  0  0  0  0  0  0999 V2000
   17.3314   28.8123  197.3609 C   0  0  0  0  0  0  0  0  0  0  0  0
   18.1873   29.4027  198.4667 C   0  0  0  0  0  0  0  0  0  0  0  0
   18.5652   30.6876  198.1596 O   0  0  0  0  0  0  0  0  0  0  0  0
   18.1470   31.1530  196.9395 C   0  0  0  0  0  0  0  0  0  0  0  0
   16.6648   30.9709  196.6944 C   0  0  0  0  0  0  0  0  0  0  0  0
   16.1964   29.6821  197.1507 N   0  0  0  0  0  4  0  0  0  0  0  0
   15.3131   29.1209  196.1670 C   0  0  0  0  0  0  0  0  0  0  0  0
   14.6180   27.8631  196.6324 C   0  0  0  0  0  0  0  0  0  0  0  0
   13.5907   27.4882  195.5735 C   0  0  0  0  0  0  0  0  0  0  0  0
   12.3697   28.0781  195.8918 O   0  0  0  0  0  0  0  0  0  0  0  0
   11.1284   27.5763  195.6205 C   0  0  0  0  0  0  0  0  0  0  0  0
   10.0298   28.2923  196.0469 C   0  0  0  0  0  0  0  0  0  0  0  0
    8.7622   27.8121  195.7891 C   0  0  0  0  0  0  0  0  0  0  0  0
   10.2214   29.4976  196.7360 O   0  0  0  0  0  0  0  0  0  0  0  0
    9.1843   29.9525  197.5834 C   0  0  0  0  0  0  0  0  0  0  0  0
   10.9008   26.3828  194.9386 C   0  0  0  0  0  0  0  0  0  0  0  0
    9.6306   25.9129  194.6865 C   0  0  0  0  0  0  0  0  0  0  0  0
    8.5361   26.6225  195.1093 C   0  0  0  0  0  0  0  0  0  0  0  0
    7.2931   26.1701  194.8689 N   0  0  0  0  0  0  0  0  0  0  0  0
    7.0565   25.0204  194.2141 C   0  0  0  0  0  0  0  0  0  0  0  0
    8.1133   24.3279  193.8016 N   0  0  0  0  0  0  0  0  0  0  0  0
    9.3989   24.7190  194.0061 C   0  0  0  0  0  0  0  0  0  0  0  0
   10.4808   23.9532  193.5211 N   0  0  0  0  0  0  0  0  0  0  0  0
   10.3139   22.9708  192.5197 C   0  0  0  0  0  0  0  0  0  0  0  0
    9.3784   23.0594  191.5268 C   0  0  0  0  0  0  0  0  0  0  0  0
    9.2555   22.0724  190.5419 C   0  0  0  0  0  0  0  0  0  0  0  0
    8.0481   22.1989  189.2702 Cl  0  0  0  0  0  0  0  0  0  0  0  0
   10.0734   20.9691  190.5337 C   0  0  0  0  0  0  0  0  0  0  0  0
    9.9578   20.0107  189.5816 F   0  0  0  0  0  0  0  0  0  0  0  0
   11.0192   20.8643  191.5256 C   0  0  0  0  0  0  0  0  0  0  0  0
   11.1389   21.8344  192.4918 C   0  0  0  0  0  0  0  0  0  0  0  0
 20 19  2  0
 20 21  1  0
 18 13  1  0
 18 17  2  0
 18 19  1  0
 17 16  1  0
 17 22  1  0
 22 21  2  0
 22 23  1  0
 15 14  1  0
 30 28  1  0
 30 31  2  0
 31 24  1  0
 25 24  2  0
 25 26  1  0
 13 12  2  0
 16 11  2  0
  8  7  1  0
  8  9  1  0
  9 10  1  0
  2  1  1  0
  2  3  1  0
  4  3  1  0
  4  5  1  0
  7  6  1  0
  1  6  1  0
  5  6  1  0
 28 26  2  0
 28 29  1  0
 26 27  1  0
 24 23  1  0
 12 11  1  0
 12 14  1  0
 11 10  1  0
M  CHG  1   6   1
M  END
$$$$
