
     RDKit          3D

 31 34  0  0  0  0  0  0  0  0999 V2000
   17.5442   29.2095  196.7783 C   0  0  0  0  0  0  0  0  0  0  0  0
   18.9671   28.8437  197.1598 C   0  0  0  0  0  0  0  0  0  0  0  0
   19.0327   28.4361  198.4703 O   0  0  0  0  0  0  0  0  0  0  0  0
   17.8510   28.4794  199.1646 C   0  0  0  0  0  0  0  0  0  0  0  0
   16.7050   27.7878  198.4585 C   0  0  0  0  0  0  0  0  0  0  0  0
   16.6956   28.0693  197.0409 N   0  0  0  0  0  4  0  0  0  0  0  0
   15.3500   28.3410  196.6184 C   0  0  0  0  0  0  0  0  0  0  0  0
   14.3965   27.1992  196.8808 C   0  0  0  0  0  0  0  0  0  0  0  0
   13.6247   26.9413  195.5943 C   0  0  0  0  0  0  0  0  0  0  0  0
   12.4562   27.6993  195.6023 O   0  0  0  0  0  0  0  0  0  0  0  0
   11.1769   27.2228  195.5510 C   0  0  0  0  0  0  0  0  0  0  0  0
   10.1924   27.9301  196.2082 C   0  0  0  0  0  0  0  0  0  0  0  0
    8.8902   27.4749  196.1760 C   0  0  0  0  0  0  0  0  0  0  0  0
   10.5334   29.1012  196.8985 O   0  0  0  0  0  0  0  0  0  0  0  0
    9.5659   30.1295  196.9841 C   0  0  0  0  0  0  0  0  0  0  0  0
   10.8022   26.0636  194.8750 C   0  0  0  0  0  0  0  0  0  0  0  0
    9.4987   25.6184  194.8493 C   0  0  0  0  0  0  0  0  0  0  0  0
    8.5175   26.3193  195.5020 C   0  0  0  0  0  0  0  0  0  0  0  0
    7.2433   25.8908  195.4833 N   0  0  0  0  0  0  0  0  0  0  0  0
    6.8657   24.7742  194.8376 C   0  0  0  0  0  0  0  0  0  0  0  0
    7.8122   24.0903  194.2029 N   0  0  0  0  0  0  0  0  0  0  0  0
    9.1203   24.4587  194.1756 C   0  0  0  0  0  0  0  0  0  0  0  0
   10.0764   23.7045  193.4619 N   0  0  0  0  0  0  0  0  0  0  0  0
    9.7158   22.5825  192.6830 C   0  0  0  0  0  0  0  0  0  0  0  0
    8.6981   21.7318  193.0143 C   0  0  0  0  0  0  0  0  0  0  0  0
    8.3602   20.6397  192.2066 C   0  0  0  0  0  0  0  0  0  0  0  0
    7.0486   19.5536  192.6443 Cl  0  0  0  0  0  0  0  0  0  0  0  0
    9.0411   20.3768  191.0433 C   0  0  0  0  0  0  0  0  0  0  0  0
    8.7170   19.3201  190.2580 F   0  0  0  0  0  0  0  0  0  0  0  0
   10.0678   21.2222  190.6958 C   0  0  0  0  0  0  0  0  0  0  0  0
   10.3983   22.2943  191.4897 C   0  0  0  0  0  0  0  0  0  0  0  0
 20 19  2  0
 20 21  1  0
 18 13  1  0
 18 17  2  0
 18 19  1  0
 17 16  1  0
 17 22  1  0
 22 21  2  0
 22 23  1  0
 15 14  1  0
 30 28  1  0
 30 31  2  0
 31 24  1  0
 25 24  2  0
 25 26  1  0
 13 12  2  0
 16 11  2  0
  8  7  1  0
  8  9  1  0
  9 10  1  0
  2  1  1  0
  2  3  1  0
  4  3  1  0
  4  5  1  0
  7  6  1  0
  1  6  1  0
  5  6  1  0
 28 26  2  0
 28 29  1  0
 26 27  1  0
 24 23  1  0
 12 11  1  0
 12 14  1  0
 11 10  1  0
M  CHG  1   6   1
M  END
$$$$
