
     RDKit          3D

 31 34  0  0  0  0  0  0  0  0999 V2000
   17.6465   28.4971  196.6891 C   0  0  0  0  0  0  0  0  0  0  0  0
   19.0527   27.9904  196.4245 C   0  0  0  0  0  0  0  0  0  0  0  0
   19.6742   27.6371  197.5979 O   0  0  0  0  0  0  0  0  0  0  0  0
   18.9453   27.8445  198.7407 C   0  0  0  0  0  0  0  0  0  0  0  0
   17.5521   27.2558  198.6888 C   0  0  0  0  0  0  0  0  0  0  0  0
   16.9217   27.4729  197.4065 N   0  0  0  0  0  4  0  0  0  0  0  0
   15.5579   27.8755  197.6086 C   0  0  0  0  0  0  0  0  0  0  0  0
   14.9117   28.4494  196.3697 C   0  0  0  0  0  0  0  0  0  0  0  0
   13.7932   27.5034  195.9558 C   0  0  0  0  0  0  0  0  0  0  0  0
   12.5694   28.0464  196.3401 O   0  0  0  0  0  0  0  0  0  0  0  0
   11.3313   27.5396  196.0629 C   0  0  0  0  0  0  0  0  0  0  0  0
   10.2280   28.2783  196.4347 C   0  0  0  0  0  0  0  0  0  0  0  0
    8.9635   27.7938  196.1694 C   0  0  0  0  0  0  0  0  0  0  0  0
   10.4115   29.5105  197.0767 O   0  0  0  0  0  0  0  0  0  0  0  0
    9.2931   30.3667  197.2071 C   0  0  0  0  0  0  0  0  0  0  0  0
   11.1118   26.3197  195.4267 C   0  0  0  0  0  0  0  0  0  0  0  0
    9.8447   25.8458  195.1667 C   0  0  0  0  0  0  0  0  0  0  0  0
    8.7453   26.5778  195.5353 C   0  0  0  0  0  0  0  0  0  0  0  0
    7.5053   26.1217  195.2868 N   0  0  0  0  0  0  0  0  0  0  0  0
    7.2764   24.9467  194.6758 C   0  0  0  0  0  0  0  0  0  0  0  0
    8.3379   24.2324  194.3159 N   0  0  0  0  0  0  0  0  0  0  0  0
    9.6209   24.6255  194.5320 C   0  0  0  0  0  0  0  0  0  0  0  0
   10.7088   23.8348  194.1034 N   0  0  0  0  0  0  0  0  0  0  0  0
   10.5257   22.6562  193.3463 C   0  0  0  0  0  0  0  0  0  0  0  0
    9.3337   21.9919  193.2640 C   0  0  0  0  0  0  0  0  0  0  0  0
    9.1882   20.8356  192.4887 C   0  0  0  0  0  0  0  0  0  0  0  0
    7.6492   19.9911  192.3913 Cl  0  0  0  0  0  0  0  0  0  0  0  0
   10.2425   20.3187  191.7763 C   0  0  0  0  0  0  0  0  0  0  0  0
   10.1059   19.1990  191.0241 F   0  0  0  0  0  0  0  0  0  0  0  0
   11.4485   20.9743  191.8486 C   0  0  0  0  0  0  0  0  0  0  0  0
   11.5898   22.1098  192.6101 C   0  0  0  0  0  0  0  0  0  0  0  0
 20 19  2  0
 20 21  1  0
 18 13  1  0
 18 17  2  0
 18 19  1  0
 17 16  1  0
 17 22  1  0
 22 21  2  0
 22 23  1  0
 15 14  1  0
 30 28  1  0
 30 31  2  0
 31 24  1  0
 25 24  2  0
 25 26  1  0
 13 12  2  0
 16 11  2  0
  8  7  1  0
  8  9  1  0
  9 10  1  0
  2  1  1  0
  2  3  1  0
  4  3  1  0
  4  5  1  0
  7  6  1  0
  1  6  1  0
  5  6  1  0
 28 26  2  0
 28 29  1  0
 26 27  1  0
 24 23  1  0
 12 11  1  0
 12 14  1  0
 11 10  1  0
M  CHG  1   6   1
M  END
$$$$
