
     RDKit          3D

 31 34  0  0  0  0  0  0  0  0999 V2000
   17.6794   29.4732  197.1650 C   0  0  0  0  0  0  0  0  0  0  0  0
   19.0407   29.7995  196.5783 C   0  0  0  0  0  0  0  0  0  0  0  0
   19.6527   28.6652  196.1021 O   0  0  0  0  0  0  0  0  0  0  0  0
   18.9584   27.4966  196.2827 C   0  0  0  0  0  0  0  0  0  0  0  0
   17.5255   27.5596  195.8001 C   0  0  0  0  0  0  0  0  0  0  0  0
   16.8930   28.8115  196.1488 N   0  0  0  0  0  4  0  0  0  0  0  0
   15.5654   28.5554  196.6332 C   0  0  0  0  0  0  0  0  0  0  0  0
   14.8666   27.4323  195.9037 C   0  0  0  0  0  0  0  0  0  0  0  0
   13.6276   28.0173  195.2403 C   0  0  0  0  0  0  0  0  0  0  0  0
   12.5466   27.9057  196.1116 O   0  0  0  0  0  0  0  0  0  0  0  0
   11.2724   27.5374  195.7842 C   0  0  0  0  0  0  0  0  0  0  0  0
   10.2311   28.3098  196.2535 C   0  0  0  0  0  0  0  0  0  0  0  0
    8.9323   27.9641  195.9410 C   0  0  0  0  0  0  0  0  0  0  0  0
   10.5116   29.4346  197.0412 O   0  0  0  0  0  0  0  0  0  0  0  0
    9.4322   30.2628  197.4280 C   0  0  0  0  0  0  0  0  0  0  0  0
   10.9570   26.4269  195.0041 C   0  0  0  0  0  0  0  0  0  0  0  0
    9.6564   26.0912  194.6982 C   0  0  0  0  0  0  0  0  0  0  0  0
    8.6185   26.8572  195.1634 C   0  0  0  0  0  0  0  0  0  0  0  0
    7.3464   26.5355  194.8708 N   0  0  0  0  0  0  0  0  0  0  0  0
    7.0251   25.4671  194.1213 C   0  0  0  0  0  0  0  0  0  0  0  0
    8.0266   24.7206  193.6672 N   0  0  0  0  0  0  0  0  0  0  0  0
    9.3367   24.9806  193.9195 C   0  0  0  0  0  0  0  0  0  0  0  0
   10.3584   24.1649  193.3875 N   0  0  0  0  0  0  0  0  0  0  0  0
   10.0764   23.0539  192.5618 C   0  0  0  0  0  0  0  0  0  0  0  0
    9.3383   23.1371  191.4140 C   0  0  0  0  0  0  0  0  0  0  0  0
    9.0950   22.0152  190.6131 C   0  0  0  0  0  0  0  0  0  0  0  0
    8.1443   22.1364  189.1391 Cl  0  0  0  0  0  0  0  0  0  0  0  0
    9.5897   20.7791  190.9500 C   0  0  0  0  0  0  0  0  0  0  0  0
    9.3564   19.6899  190.1772 F   0  0  0  0  0  0  0  0  0  0  0  0
   10.3335   20.6779  192.1015 C   0  0  0  0  0  0  0  0  0  0  0  0
   10.5719   21.7804  192.8867 C   0  0  0  0  0  0  0  0  0  0  0  0
 20 19  2  0
 20 21  1  0
 18 13  1  0
 18 17  2  0
 18 19  1  0
 17 16  1  0
 17 22  1  0
 22 21  2  0
 22 23  1  0
 15 14  1  0
 30 28  1  0
 30 31  2  0
 31 24  1  0
 25 24  2  0
 25 26  1  0
 13 12  2  0
 16 11  2  0
  8  7  1  0
  8  9  1  0
  9 10  1  0
  2  1  1  0
  2  3  1  0
  4  3  1  0
  4  5  1  0
  7  6  1  0
  1  6  1  0
  5  6  1  0
 28 26  2  0
 28 29  1  0
 26 27  1  0
 24 23  1  0
 12 11  1  0
 12 14  1  0
 11 10  1  0
M  CHG  1   6   1
M  END
$$$$
