
     RDKit          3D

 31 34  0  0  0  0  0  0  0  0999 V2000
   16.9959   30.7699  196.6014 C   0  0  0  0  0  0  0  0  0  0  0  0
   18.5025   30.9451  196.5426 C   0  0  0  0  0  0  0  0  0  0  0  0
   18.9762   31.5004  197.7067 O   0  0  0  0  0  0  0  0  0  0  0  0
   18.0252   31.8164  198.6427 C   0  0  0  0  0  0  0  0  0  0  0  0
   17.0765   30.6793  198.9538 C   0  0  0  0  0  0  0  0  0  0  0  0
   16.6763   29.9682  197.7609 N   0  0  0  0  0  4  0  0  0  0  0  0
   15.2651   29.7069  197.8132 C   0  0  0  0  0  0  0  0  0  0  0  0
   14.5354   30.0960  196.5490 C   0  0  0  0  0  0  0  0  0  0  0  0
   13.8648   28.8433  196.0026 C   0  0  0  0  0  0  0  0  0  0  0  0
   12.7966   28.4996  196.8277 O   0  0  0  0  0  0  0  0  0  0  0  0
   11.5552   28.0952  196.4256 C   0  0  0  0  0  0  0  0  0  0  0  0
   10.4762   28.8921  196.7451 C   0  0  0  0  0  0  0  0  0  0  0  0
    9.2090   28.5113  196.3539 C   0  0  0  0  0  0  0  0  0  0  0  0
   10.6870   30.0771  197.4631 O   0  0  0  0  0  0  0  0  0  0  0  0
    9.6121   30.9900  197.5723 C   0  0  0  0  0  0  0  0  0  0  0  0
   11.3089   26.9247  195.7111 C   0  0  0  0  0  0  0  0  0  0  0  0
   10.0392   26.5544  195.3254 C   0  0  0  0  0  0  0  0  0  0  0  0
    8.9642   27.3445  195.6417 C   0  0  0  0  0  0  0  0  0  0  0  0
    7.7218   26.9895  195.2706 N   0  0  0  0  0  0  0  0  0  0  0  0
    7.4670   25.8632  194.5828 C   0  0  0  0  0  0  0  0  0  0  0  0
    8.5049   25.0930  194.2729 N   0  0  0  0  0  0  0  0  0  0  0  0
    9.7886   25.3838  194.6120 C   0  0  0  0  0  0  0  0  0  0  0  0
   10.8534   24.5387  194.2319 N   0  0  0  0  0  0  0  0  0  0  0  0
   10.6458   23.3714  193.4637 C   0  0  0  0  0  0  0  0  0  0  0  0
    9.4587   23.0720  192.8551 C   0  0  0  0  0  0  0  0  0  0  0  0
    9.2977   21.9127  192.0875 C   0  0  0  0  0  0  0  0  0  0  0  0
    7.7656   21.5399  191.3098 Cl  0  0  0  0  0  0  0  0  0  0  0  0
   10.3306   21.0243  191.9142 C   0  0  0  0  0  0  0  0  0  0  0  0
   10.1790   19.9003  191.1714 F   0  0  0  0  0  0  0  0  0  0  0  0
   11.5310   21.3101  192.5200 C   0  0  0  0  0  0  0  0  0  0  0  0
   11.6877   22.4490  193.2732 C   0  0  0  0  0  0  0  0  0  0  0  0
 20 19  2  0
 20 21  1  0
 18 13  1  0
 18 17  2  0
 18 19  1  0
 17 16  1  0
 17 22  1  0
 22 21  2  0
 22 23  1  0
 15 14  1  0
 30 28  1  0
 30 31  2  0
 31 24  1  0
 25 24  2  0
 25 26  1  0
 13 12  2  0
 16 11  2  0
  8  7  1  0
  8  9  1  0
  9 10  1  0
  2  1  1  0
  2  3  1  0
  4  3  1  0
  4  5  1  0
  7  6  1  0
  1  6  1  0
  5  6  1  0
 28 26  2  0
 28 29  1  0
 26 27  1  0
 24 23  1  0
 12 11  1  0
 12 14  1  0
 11 10  1  0
M  CHG  1   6   1
M  END
$$$$
