
     RDKit          3D

 31 34  0  0  0  0  0  0  0  0999 V2000
   17.8682   26.8689  196.1978 C   0  0  0  0  0  0  0  0  0  0  0  0
   18.9482   27.4395  197.0988 C   0  0  0  0  0  0  0  0  0  0  0  0
   18.6395   28.7230  197.4801 O   0  0  0  0  0  0  0  0  0  0  0  0
   17.4802   29.2345  196.9562 C   0  0  0  0  0  0  0  0  0  0  0  0
   16.2796   28.3315  197.1391 C   0  0  0  0  0  0  0  0  0  0  0  0
   16.6056   26.9443  196.8974 N   0  0  0  0  0  4  0  0  0  0  0  0
   15.5643   26.3401  196.1141 C   0  0  0  0  0  0  0  0  0  0  0  0
   14.4443   27.2926  195.7678 C   0  0  0  0  0  0  0  0  0  0  0  0
   13.1631   26.7321  196.3692 C   0  0  0  0  0  0  0  0  0  0  0  0
   12.1030   27.5808  196.0593 O   0  0  0  0  0  0  0  0  0  0  0  0
   10.8253   27.2079  195.7514 C   0  0  0  0  0  0  0  0  0  0  0  0
    9.7900   27.9974  196.2051 C   0  0  0  0  0  0  0  0  0  0  0  0
    8.4879   27.6477  195.9115 C   0  0  0  0  0  0  0  0  0  0  0  0
   10.0798   29.1435  196.9580 O   0  0  0  0  0  0  0  0  0  0  0  0
    9.0467   30.0891  197.1562 C   0  0  0  0  0  0  0  0  0  0  0  0
   10.5007   26.0765  195.0060 C   0  0  0  0  0  0  0  0  0  0  0  0
    9.1968   25.7369  194.7186 C   0  0  0  0  0  0  0  0  0  0  0  0
    8.1649   26.5198  195.1684 C   0  0  0  0  0  0  0  0  0  0  0  0
    6.8897   26.1946  194.8939 N   0  0  0  0  0  0  0  0  0  0  0  0
    6.5595   25.1061  194.1778 C   0  0  0  0  0  0  0  0  0  0  0  0
    7.5553   24.3430  193.7388 N   0  0  0  0  0  0  0  0  0  0  0  0
    8.8679   24.6053  193.9747 C   0  0  0  0  0  0  0  0  0  0  0  0
    9.8831   23.7708  193.4597 N   0  0  0  0  0  0  0  0  0  0  0  0
    9.6296   22.8221  192.4441 C   0  0  0  0  0  0  0  0  0  0  0  0
   10.2578   21.6099  192.3725 C   0  0  0  0  0  0  0  0  0  0  0  0
    9.9662   20.6893  191.3592 C   0  0  0  0  0  0  0  0  0  0  0  0
   10.7814   19.1335  191.2790 Cl  0  0  0  0  0  0  0  0  0  0  0  0
    9.0331   20.9680  190.3909 C   0  0  0  0  0  0  0  0  0  0  0  0
    8.7476   20.0791  189.4077 F   0  0  0  0  0  0  0  0  0  0  0  0
    8.3925   22.1829  190.4480 C   0  0  0  0  0  0  0  0  0  0  0  0
    8.6796   23.0858  191.4437 C   0  0  0  0  0  0  0  0  0  0  0  0
 20 19  2  0
 20 21  1  0
 18 13  1  0
 18 17  2  0
 18 19  1  0
 17 16  1  0
 17 22  1  0
 22 21  2  0
 22 23  1  0
 15 14  1  0
 30 28  1  0
 30 31  2  0
 31 24  1  0
 25 24  2  0
 25 26  1  0
 13 12  2  0
 16 11  2  0
  8  7  1  0
  8  9  1  0
  9 10  1  0
  2  1  1  0
  2  3  1  0
  4  3  1  0
  4  5  1  0
  7  6  1  0
  1  6  1  0
  5  6  1  0
 28 26  2  0
 28 29  1  0
 26 27  1  0
 24 23  1  0
 12 11  1  0
 12 14  1  0
 11 10  1  0
M  CHG  1   6   1
M  END
$$$$
