
     RDKit          3D

 31 34  0  0  0  0  0  0  0  0999 V2000
   17.8596   28.0715  196.4016 C   0  0  0  0  0  0  0  0  0  0  0  0
   19.2082   27.4854  196.7780 C   0  0  0  0  0  0  0  0  0  0  0  0
   19.1539   26.8873  198.0138 O   0  0  0  0  0  0  0  0  0  0  0  0
   17.9479   26.9716  198.6608 C   0  0  0  0  0  0  0  0  0  0  0  0
   16.7720   26.5329  197.8153 C   0  0  0  0  0  0  0  0  0  0  0  0
   16.8737   27.0160  196.4569 N   0  0  0  0  0  4  0  0  0  0  0  0
   15.5933   27.5062  196.0289 C   0  0  0  0  0  0  0  0  0  0  0  0
   14.4774   26.5034  196.2045 C   0  0  0  0  0  0  0  0  0  0  0  0
   13.2779   27.2472  196.7746 C   0  0  0  0  0  0  0  0  0  0  0  0
   12.4489   27.6473  195.7292 O   0  0  0  0  0  0  0  0  0  0  0  0
   11.1554   27.2593  195.5223 C   0  0  0  0  0  0  0  0  0  0  0  0
   10.1484   28.0719  195.9986 C   0  0  0  0  0  0  0  0  0  0  0  0
    8.8314   27.7079  195.8062 C   0  0  0  0  0  0  0  0  0  0  0  0
   10.4817   29.2557  196.6708 O   0  0  0  0  0  0  0  0  0  0  0  0
    9.4284   30.0866  197.1187 C   0  0  0  0  0  0  0  0  0  0  0  0
   10.7877   26.0907  194.8589 C   0  0  0  0  0  0  0  0  0  0  0  0
    9.4693   25.7371  194.6724 C   0  0  0  0  0  0  0  0  0  0  0  0
    8.4655   26.5429  195.1448 C   0  0  0  0  0  0  0  0  0  0  0  0
    7.1765   26.2043  194.9686 N   0  0  0  0  0  0  0  0  0  0  0  0
    6.8051   25.0800  194.3325 C   0  0  0  0  0  0  0  0  0  0  0  0
    7.7734   24.2946  193.8720 N   0  0  0  0  0  0  0  0  0  0  0  0
    9.0975   24.5683  194.0107 C   0  0  0  0  0  0  0  0  0  0  0  0
   10.0807   23.7076  193.4769 N   0  0  0  0  0  0  0  0  0  0  0  0
    9.8134   22.8500  192.3866 C   0  0  0  0  0  0  0  0  0  0  0  0
   10.4532   21.6575  192.1924 C   0  0  0  0  0  0  0  0  0  0  0  0
   10.1477   20.8272  191.1078 C   0  0  0  0  0  0  0  0  0  0  0  0
   10.9779   19.2957  190.8700 Cl  0  0  0  0  0  0  0  0  0  0  0  0
    9.1886   21.1788  190.1898 C   0  0  0  0  0  0  0  0  0  0  0  0
    8.8895   20.3775  189.1378 F   0  0  0  0  0  0  0  0  0  0  0  0
    8.5361   22.3752  190.3701 C   0  0  0  0  0  0  0  0  0  0  0  0
    8.8369   23.1894  191.4358 C   0  0  0  0  0  0  0  0  0  0  0  0
 20 19  2  0
 20 21  1  0
 18 13  1  0
 18 17  2  0
 18 19  1  0
 17 16  1  0
 17 22  1  0
 22 21  2  0
 22 23  1  0
 15 14  1  0
 30 28  1  0
 30 31  2  0
 31 24  1  0
 25 24  2  0
 25 26  1  0
 13 12  2  0
 16 11  2  0
  8  7  1  0
  8  9  1  0
  9 10  1  0
  2  1  1  0
  2  3  1  0
  4  3  1  0
  4  5  1  0
  7  6  1  0
  1  6  1  0
  5  6  1  0
 28 26  2  0
 28 29  1  0
 26 27  1  0
 24 23  1  0
 12 11  1  0
 12 14  1  0
 11 10  1  0
M  CHG  1   6   1
M  END
$$$$
