
     RDKit          3D

 31 34  0  0  0  0  0  0  0  0999 V2000
   16.8016   29.3710  198.6345 C   0  0  0  0  0  0  0  0  0  0  0  0
   18.3149   29.4574  198.5535 C   0  0  0  0  0  0  0  0  0  0  0  0
   18.8519   28.2611  198.1431 O   0  0  0  0  0  0  0  0  0  0  0  0
   17.9521   27.2471  197.9365 C   0  0  0  0  0  0  0  0  0  0  0  0
   16.7937   27.6345  197.0430 C   0  0  0  0  0  0  0  0  0  0  0  0
   16.2998   28.9592  197.3431 N   0  0  0  0  0  4  0  0  0  0  0  0
   14.8637   28.9420  197.3481 C   0  0  0  0  0  0  0  0  0  0  0  0
   14.2592   28.9024  195.9644 C   0  0  0  0  0  0  0  0  0  0  0  0
   13.4571   27.6135  195.8510 C   0  0  0  0  0  0  0  0  0  0  0  0
   12.2455   27.7685  196.5205 O   0  0  0  0  0  0  0  0  0  0  0  0
   11.0136   27.3829  196.0731 C   0  0  0  0  0  0  0  0  0  0  0  0
    9.9357   28.1953  196.3548 C   0  0  0  0  0  0  0  0  0  0  0  0
    8.6779   27.8336  195.9175 C   0  0  0  0  0  0  0  0  0  0  0  0
   10.1378   29.3763  197.0818 O   0  0  0  0  0  0  0  0  0  0  0  0
    9.3427   30.5010  196.7599 C   0  0  0  0  0  0  0  0  0  0  0  0
   10.7762   26.2170  195.3484 C   0  0  0  0  0  0  0  0  0  0  0  0
    9.5160   25.8657  194.9165 C   0  0  0  0  0  0  0  0  0  0  0  0
    8.4419   26.6713  195.1951 C   0  0  0  0  0  0  0  0  0  0  0  0
    7.2086   26.3350  194.7789 N   0  0  0  0  0  0  0  0  0  0  0  0
    6.9624   25.2134  194.0804 C   0  0  0  0  0  0  0  0  0  0  0  0
    7.9994   24.4282  193.8071 N   0  0  0  0  0  0  0  0  0  0  0  0
    9.2741   24.6997  194.1927 C   0  0  0  0  0  0  0  0  0  0  0  0
   10.3394   23.8394  193.8499 N   0  0  0  0  0  0  0  0  0  0  0  0
   10.1858   22.7935  192.9128 C   0  0  0  0  0  0  0  0  0  0  0  0
    8.9830   22.4446  192.3646 C   0  0  0  0  0  0  0  0  0  0  0  0
    8.8746   21.4123  191.4255 C   0  0  0  0  0  0  0  0  0  0  0  0
    7.3213   20.9740  190.7280 Cl  0  0  0  0  0  0  0  0  0  0  0  0
    9.9775   20.7044  191.0152 C   0  0  0  0  0  0  0  0  0  0  0  0
    9.8770   19.7039  190.1057 F   0  0  0  0  0  0  0  0  0  0  0  0
   11.1948   21.0422  191.5571 C   0  0  0  0  0  0  0  0  0  0  0  0
   11.2997   22.0561  192.4790 C   0  0  0  0  0  0  0  0  0  0  0  0
 20 19  2  0
 20 21  1  0
 18 13  1  0
 18 17  2  0
 18 19  1  0
 17 16  1  0
 17 22  1  0
 22 21  2  0
 22 23  1  0
 15 14  1  0
 30 28  1  0
 30 31  2  0
 31 24  1  0
 25 24  2  0
 25 26  1  0
 13 12  2  0
 16 11  2  0
  8  7  1  0
  8  9  1  0
  9 10  1  0
  2  1  1  0
  2  3  1  0
  4  3  1  0
  4  5  1  0
  7  6  1  0
  1  6  1  0
  5  6  1  0
 28 26  2  0
 28 29  1  0
 26 27  1  0
 24 23  1  0
 12 11  1  0
 12 14  1  0
 11 10  1  0
M  CHG  1   6   1
M  END
$$$$
