
     RDKit          3D

 31 34  0  0  0  0  0  0  0  0999 V2000
   17.5774   28.1971  197.2976 C   0  0  0  0  0  0  0  0  0  0  0  0
   18.9283   28.4456  196.6516 C   0  0  0  0  0  0  0  0  0  0  0  0
   19.6578   27.2833  196.5807 O   0  0  0  0  0  0  0  0  0  0  0  0
   19.0624   26.1754  197.1269 C   0  0  0  0  0  0  0  0  0  0  0  0
   17.6513   25.9381  196.6344 C   0  0  0  0  0  0  0  0  0  0  0  0
   16.8964   27.1674  196.5460 N   0  0  0  0  0  4  0  0  0  0  0  0
   15.5773   26.9549  197.0728 C   0  0  0  0  0  0  0  0  0  0  0  0
   14.4907   27.6082  196.2515 C   0  0  0  0  0  0  0  0  0  0  0  0
   13.2316   26.7663  196.4041 C   0  0  0  0  0  0  0  0  0  0  0  0
   12.1230   27.5343  196.0560 O   0  0  0  0  0  0  0  0  0  0  0  0
   10.8677   27.0722  195.7785 C   0  0  0  0  0  0  0  0  0  0  0  0
    9.7906   27.7880  196.2567 C   0  0  0  0  0  0  0  0  0  0  0  0
    8.5096   27.3473  195.9941 C   0  0  0  0  0  0  0  0  0  0  0  0
   10.0171   28.9527  197.0025 O   0  0  0  0  0  0  0  0  0  0  0  0
    8.8955   29.7160  197.4029 C   0  0  0  0  0  0  0  0  0  0  0  0
   10.6056   25.9197  195.0408 C   0  0  0  0  0  0  0  0  0  0  0  0
    9.3223   25.4891  194.7845 C   0  0  0  0  0  0  0  0  0  0  0  0
    8.2490   26.1984  195.2588 C   0  0  0  0  0  0  0  0  0  0  0  0
    6.9936   25.7841  195.0146 N   0  0  0  0  0  0  0  0  0  0  0  0
    6.7237   24.6741  194.3065 C   0  0  0  0  0  0  0  0  0  0  0  0
    7.7598   23.9820  193.8439 N   0  0  0  0  0  0  0  0  0  0  0  0
    9.0561   24.3361  194.0485 C   0  0  0  0  0  0  0  0  0  0  0  0
   10.1148   23.5739  193.5094 N   0  0  0  0  0  0  0  0  0  0  0  0
    9.8932   22.5460  192.5660 C   0  0  0  0  0  0  0  0  0  0  0  0
    9.3639   21.3279  192.8903 C   0  0  0  0  0  0  0  0  0  0  0  0
    9.1436   20.3407  191.9227 C   0  0  0  0  0  0  0  0  0  0  0  0
    8.4618   18.7784  192.3533 Cl  0  0  0  0  0  0  0  0  0  0  0  0
    9.4525   20.5567  190.6020 C   0  0  0  0  0  0  0  0  0  0  0  0
    9.2407   19.6033  189.6616 F   0  0  0  0  0  0  0  0  0  0  0  0
    9.9861   21.7761  190.2591 C   0  0  0  0  0  0  0  0  0  0  0  0
   10.2016   22.7446  191.2102 C   0  0  0  0  0  0  0  0  0  0  0  0
 20 19  2  0
 20 21  1  0
 18 13  1  0
 18 17  2  0
 18 19  1  0
 17 16  1  0
 17 22  1  0
 22 21  2  0
 22 23  1  0
 15 14  1  0
 30 28  1  0
 30 31  2  0
 31 24  1  0
 25 24  2  0
 25 26  1  0
 13 12  2  0
 16 11  2  0
  8  7  1  0
  8  9  1  0
  9 10  1  0
  2  1  1  0
  2  3  1  0
  4  3  1  0
  4  5  1  0
  7  6  1  0
  1  6  1  0
  5  6  1  0
 28 26  2  0
 28 29  1  0
 26 27  1  0
 24 23  1  0
 12 11  1  0
 12 14  1  0
 11 10  1  0
M  CHG  1   6   1
M  END
$$$$
