
     RDKit          3D

 31 34  0  0  0  0  0  0  0  0999 V2000
   17.1972   29.5141  196.7386 C   0  0  0  0  0  0  0  0  0  0  0  0
   18.7000   29.5805  196.9419 C   0  0  0  0  0  0  0  0  0  0  0  0
   19.0127   29.5888  198.2799 O   0  0  0  0  0  0  0  0  0  0  0  0
   17.9437   29.5800  199.1386 C   0  0  0  0  0  0  0  0  0  0  0  0
   16.9357   28.4904  198.8439 C   0  0  0  0  0  0  0  0  0  0  0  0
   16.6965   28.3454  197.4259 N   0  0  0  0  0  4  0  0  0  0  0  0
   15.2871   28.1955  197.1938 C   0  0  0  0  0  0  0  0  0  0  0  0
   14.9526   27.7795  195.7807 C   0  0  0  0  0  0  0  0  0  0  0  0
   13.7699   26.8238  195.8518 C   0  0  0  0  0  0  0  0  0  0  0  0
   12.6042   27.5542  196.0705 O   0  0  0  0  0  0  0  0  0  0  0  0
   11.3301   27.1621  195.7717 C   0  0  0  0  0  0  0  0  0  0  0  0
   10.2931   28.0033  196.1155 C   0  0  0  0  0  0  0  0  0  0  0  0
    8.9945   27.6359  195.8280 C   0  0  0  0  0  0  0  0  0  0  0  0
   10.5777   29.2189  196.7522 O   0  0  0  0  0  0  0  0  0  0  0  0
    9.4948   30.0657  197.0858 C   0  0  0  0  0  0  0  0  0  0  0  0
   11.0107   25.9621  195.1400 C   0  0  0  0  0  0  0  0  0  0  0  0
    9.7103   25.6054  194.8576 C   0  0  0  0  0  0  0  0  0  0  0  0
    8.6768   26.4396  195.1983 C   0  0  0  0  0  0  0  0  0  0  0  0
    7.4049   26.0984  194.9278 N   0  0  0  0  0  0  0  0  0  0  0  0
    7.0797   24.9441  194.3207 C   0  0  0  0  0  0  0  0  0  0  0  0
    8.0771   24.1312  193.9878 N   0  0  0  0  0  0  0  0  0  0  0  0
    9.3866   24.4055  194.2273 C   0  0  0  0  0  0  0  0  0  0  0  0
   10.4045   23.5133  193.8267 N   0  0  0  0  0  0  0  0  0  0  0  0
   10.2205   22.5918  192.7718 C   0  0  0  0  0  0  0  0  0  0  0  0
    9.1911   22.6695  191.8755 C   0  0  0  0  0  0  0  0  0  0  0  0
    9.0528   21.7460  190.8327 C   0  0  0  0  0  0  0  0  0  0  0  0
    7.7243   21.8576  189.6865 Cl  0  0  0  0  0  0  0  0  0  0  0  0
    9.9496   20.7191  190.6675 C   0  0  0  0  0  0  0  0  0  0  0  0
    9.8194   19.8224  189.6588 F   0  0  0  0  0  0  0  0  0  0  0  0
   10.9904   20.6262  191.5606 C   0  0  0  0  0  0  0  0  0  0  0  0
   11.1251   21.5339  192.5838 C   0  0  0  0  0  0  0  0  0  0  0  0
 20 19  2  0
 20 21  1  0
 18 13  1  0
 18 17  2  0
 18 19  1  0
 17 16  1  0
 17 22  1  0
 22 21  2  0
 22 23  1  0
 15 14  1  0
 30 28  1  0
 30 31  2  0
 31 24  1  0
 25 24  2  0
 25 26  1  0
 13 12  2  0
 16 11  2  0
  8  7  1  0
  8  9  1  0
  9 10  1  0
  2  1  1  0
  2  3  1  0
  4  3  1  0
  4  5  1  0
  7  6  1  0
  1  6  1  0
  5  6  1  0
 28 26  2  0
 28 29  1  0
 26 27  1  0
 24 23  1  0
 12 11  1  0
 12 14  1  0
 11 10  1  0
M  CHG  1   6   1
M  END
$$$$
