
     RDKit          3D

 31 34  0  0  0  0  0  0  0  0999 V2000
   17.6848   28.2961  197.8067 C   0  0  0  0  0  0  0  0  0  0  0  0
   19.0873   28.8703  197.7218 C   0  0  0  0  0  0  0  0  0  0  0  0
   19.9337   28.0007  197.0773 O   0  0  0  0  0  0  0  0  0  0  0  0
   19.3768   26.8092  196.6896 C   0  0  0  0  0  0  0  0  0  0  0  0
   18.0913   26.9648  195.9064 C   0  0  0  0  0  0  0  0  0  0  0  0
   17.2378   27.9876  196.4673 N   0  0  0  0  0  4  0  0  0  0  0  0
   15.8814   27.5160  196.4900 C   0  0  0  0  0  0  0  0  0  0  0  0
   14.8982   28.5411  197.0040 C   0  0  0  0  0  0  0  0  0  0  0  0
   13.5590   27.8408  197.1866 C   0  0  0  0  0  0  0  0  0  0  0  0
   13.0244   27.5430  195.9353 O   0  0  0  0  0  0  0  0  0  0  0  0
   11.7412   27.1566  195.6698 C   0  0  0  0  0  0  0  0  0  0  0  0
   10.7160   27.9900  196.0644 C   0  0  0  0  0  0  0  0  0  0  0  0
    9.4087   27.6282  195.8114 C   0  0  0  0  0  0  0  0  0  0  0  0
   11.0214   29.1922  196.7169 O   0  0  0  0  0  0  0  0  0  0  0  0
    9.9494   30.0233  197.1180 C   0  0  0  0  0  0  0  0  0  0  0  0
   11.4012   25.9700  195.0237 C   0  0  0  0  0  0  0  0  0  0  0  0
   10.0922   25.6189  194.7760 C   0  0  0  0  0  0  0  0  0  0  0  0
    9.0705   26.4453  195.1674 C   0  0  0  0  0  0  0  0  0  0  0  0
    7.7904   26.1092  194.9311 N   0  0  0  0  0  0  0  0  0  0  0  0
    7.4455   24.9679  194.3108 C   0  0  0  0  0  0  0  0  0  0  0  0
    8.4313   24.1624  193.9288 N   0  0  0  0  0  0  0  0  0  0  0  0
    9.7480   24.4322  194.1315 C   0  0  0  0  0  0  0  0  0  0  0  0
   10.7521   23.5490  193.6796 N   0  0  0  0  0  0  0  0  0  0  0  0
   10.5229   22.6254  192.6356 C   0  0  0  0  0  0  0  0  0  0  0  0
    9.5202   22.7620  191.7163 C   0  0  0  0  0  0  0  0  0  0  0  0
    9.3361   21.8331  190.6855 C   0  0  0  0  0  0  0  0  0  0  0  0
    8.0427   22.0210  189.5094 Cl  0  0  0  0  0  0  0  0  0  0  0  0
   10.1590   20.7413  190.5555 C   0  0  0  0  0  0  0  0  0  0  0  0
    9.9842   19.8392  189.5585 F   0  0  0  0  0  0  0  0  0  0  0  0
   11.1719   20.5886  191.4721 C   0  0  0  0  0  0  0  0  0  0  0  0
   11.3517   21.5016  192.4836 C   0  0  0  0  0  0  0  0  0  0  0  0
 20 19  2  0
 20 21  1  0
 18 13  1  0
 18 17  2  0
 18 19  1  0
 17 16  1  0
 17 22  1  0
 22 21  2  0
 22 23  1  0
 15 14  1  0
 30 28  1  0
 30 31  2  0
 31 24  1  0
 25 24  2  0
 25 26  1  0
 13 12  2  0
 16 11  2  0
  8  7  1  0
  8  9  1  0
  9 10  1  0
  2  1  1  0
  2  3  1  0
  4  3  1  0
  4  5  1  0
  7  6  1  0
  1  6  1  0
  5  6  1  0
 28 26  2  0
 28 29  1  0
 26 27  1  0
 24 23  1  0
 12 11  1  0
 12 14  1  0
 11 10  1  0
M  CHG  1   6   1
M  END
$$$$
