
     RDKit          3D

 31 34  0  0  0  0  0  0  0  0999 V2000
   16.2687   30.7449  199.0563 C   0  0  0  0  0  0  0  0  0  0  0  0
   17.3407   31.8140  198.9469 C   0  0  0  0  0  0  0  0  0  0  0  0
   18.5223   31.2774  198.4953 O   0  0  0  0  0  0  0  0  0  0  0  0
   18.5149   29.9230  198.2812 C   0  0  0  0  0  0  0  0  0  0  0  0
   17.3630   29.4494  197.4215 C   0  0  0  0  0  0  0  0  0  0  0  0
   16.1250   30.1113  197.7652 N   0  0  0  0  0  4  0  0  0  0  0  0
   15.0624   29.1457  197.7988 C   0  0  0  0  0  0  0  0  0  0  0  0
   14.7681   28.5299  196.4512 C   0  0  0  0  0  0  0  0  0  0  0  0
   13.5392   27.6456  196.6095 C   0  0  0  0  0  0  0  0  0  0  0  0
   12.4214   28.3266  196.1332 O   0  0  0  0  0  0  0  0  0  0  0  0
   11.1832   27.7973  195.9027 C   0  0  0  0  0  0  0  0  0  0  0  0
   10.0801   28.5694  196.1996 C   0  0  0  0  0  0  0  0  0  0  0  0
    8.8155   28.0635  195.9788 C   0  0  0  0  0  0  0  0  0  0  0  0
   10.2640   29.8571  196.7216 O   0  0  0  0  0  0  0  0  0  0  0  0
    9.1155   30.6404  196.9824 C   0  0  0  0  0  0  0  0  0  0  0  0
   10.9633   26.5225  195.3853 C   0  0  0  0  0  0  0  0  0  0  0  0
    9.6960   26.0275  195.1687 C   0  0  0  0  0  0  0  0  0  0  0  0
    8.5970   26.7927  195.4631 C   0  0  0  0  0  0  0  0  0  0  0  0
    7.3568   26.3166  195.2563 N   0  0  0  0  0  0  0  0  0  0  0  0
    7.1275   25.0889  194.7596 C   0  0  0  0  0  0  0  0  0  0  0  0
    8.1888   24.3422  194.4721 N   0  0  0  0  0  0  0  0  0  0  0  0
    9.4719   24.7525  194.6528 C   0  0  0  0  0  0  0  0  0  0  0  0
   10.5595   23.9231  194.3042 N   0  0  0  0  0  0  0  0  0  0  0  0
   10.4263   22.8613  193.3820 C   0  0  0  0  0  0  0  0  0  0  0  0
    9.2226   22.4336  192.8952 C   0  0  0  0  0  0  0  0  0  0  0  0
    9.1335   21.3882  191.9686 C   0  0  0  0  0  0  0  0  0  0  0  0
    7.5787   20.8482  191.3502 Cl  0  0  0  0  0  0  0  0  0  0  0  0
   10.2574   20.7463  191.5092 C   0  0  0  0  0  0  0  0  0  0  0  0
   10.1757   19.7333  190.6117 F   0  0  0  0  0  0  0  0  0  0  0  0
   11.4759   21.1637  191.9892 C   0  0  0  0  0  0  0  0  0  0  0  0
   11.5618   22.1905  192.8987 C   0  0  0  0  0  0  0  0  0  0  0  0
 20 19  2  0
 20 21  1  0
 18 13  1  0
 18 17  2  0
 18 19  1  0
 17 16  1  0
 17 22  1  0
 22 21  2  0
 22 23  1  0
 15 14  1  0
 30 28  1  0
 30 31  2  0
 31 24  1  0
 25 24  2  0
 25 26  1  0
 13 12  2  0
 16 11  2  0
  8  7  1  0
  8  9  1  0
  9 10  1  0
  2  1  1  0
  2  3  1  0
  4  3  1  0
  4  5  1  0
  7  6  1  0
  1  6  1  0
  5  6  1  0
 28 26  2  0
 28 29  1  0
 26 27  1  0
 24 23  1  0
 12 11  1  0
 12 14  1  0
 11 10  1  0
M  CHG  1   6   1
M  END
$$$$
