
     RDKit          3D

 31 34  0  0  0  0  0  0  0  0999 V2000
   17.4910   28.0904  196.1047 C   0  0  0  0  0  0  0  0  0  0  0  0
   18.8574   28.0945  196.7657 C   0  0  0  0  0  0  0  0  0  0  0  0
   19.4184   29.3481  196.7214 O   0  0  0  0  0  0  0  0  0  0  0  0
   18.6804   30.3053  196.0740 C   0  0  0  0  0  0  0  0  0  0  0  0
   17.2457   30.3909  196.5475 C   0  0  0  0  0  0  0  0  0  0  0  0
   16.6673   29.0830  196.7569 N   0  0  0  0  0  4  0  0  0  0  0  0
   15.3363   29.0592  196.2179 C   0  0  0  0  0  0  0  0  0  0  0  0
   14.6005   27.7689  196.4928 C   0  0  0  0  0  0  0  0  0  0  0  0
   13.5834   27.5743  195.3770 C   0  0  0  0  0  0  0  0  0  0  0  0
   12.3569   28.0973  195.7800 O   0  0  0  0  0  0  0  0  0  0  0  0
   11.1262   27.5453  195.5633 C   0  0  0  0  0  0  0  0  0  0  0  0
   10.0178   28.2281  196.0178 C   0  0  0  0  0  0  0  0  0  0  0  0
    8.7605   27.6969  195.8151 C   0  0  0  0  0  0  0  0  0  0  0  0
   10.1890   29.4520  196.6788 O   0  0  0  0  0  0  0  0  0  0  0  0
   10.6194   29.4270  198.0260 C   0  0  0  0  0  0  0  0  0  0  0  0
   10.9189   26.3320  194.9105 C   0  0  0  0  0  0  0  0  0  0  0  0
    9.6588   25.8112  194.7135 C   0  0  0  0  0  0  0  0  0  0  0  0
    8.5546   26.4876  195.1644 C   0  0  0  0  0  0  0  0  0  0  0  0
    7.3216   25.9854  194.9777 N   0  0  0  0  0  0  0  0  0  0  0  0
    7.1046   24.8160  194.3517 C   0  0  0  0  0  0  0  0  0  0  0  0
    8.1709   24.1555  193.9122 N   0  0  0  0  0  0  0  0  0  0  0  0
    9.4475   24.5973  194.0625 C   0  0  0  0  0  0  0  0  0  0  0  0
   10.5391   23.8631  193.5509 N   0  0  0  0  0  0  0  0  0  0  0  0
   10.3661   22.8141  192.6205 C   0  0  0  0  0  0  0  0  0  0  0  0
    9.4997   22.8793  191.5650 C   0  0  0  0  0  0  0  0  0  0  0  0
    9.3694   21.8243  190.6544 C   0  0  0  0  0  0  0  0  0  0  0  0
    8.2513   21.9214  189.3009 Cl  0  0  0  0  0  0  0  0  0  0  0  0
   10.1098   20.6751  190.7853 C   0  0  0  0  0  0  0  0  0  0  0  0
    9.9868   19.6509  189.9055 F   0  0  0  0  0  0  0  0  0  0  0  0
   10.9856   20.5931  191.8417 C   0  0  0  0  0  0  0  0  0  0  0  0
   11.1127   21.6299  192.7349 C   0  0  0  0  0  0  0  0  0  0  0  0
 20 19  2  0
 20 21  1  0
 18 13  1  0
 18 17  2  0
 18 19  1  0
 17 16  1  0
 17 22  1  0
 22 21  2  0
 22 23  1  0
 15 14  1  0
 30 28  1  0
 30 31  2  0
 31 24  1  0
 25 24  2  0
 25 26  1  0
 13 12  2  0
 16 11  2  0
  8  7  1  0
  8  9  1  0
  9 10  1  0
  2  1  1  0
  2  3  1  0
  4  3  1  0
  4  5  1  0
  7  6  1  0
  1  6  1  0
  5  6  1  0
 28 26  2  0
 28 29  1  0
 26 27  1  0
 24 23  1  0
 12 11  1  0
 12 14  1  0
 11 10  1  0
M  CHG  1   6   1
M  END
$$$$
