
     RDKit          3D

 31 34  0  0  0  0  0  0  0  0999 V2000
   16.4845   29.4598  197.8241 C   0  0  0  0  0  0  0  0  0  0  0  0
   17.8849   30.0197  197.9961 C   0  0  0  0  0  0  0  0  0  0  0  0
   18.7141   29.0925  198.5798 O   0  0  0  0  0  0  0  0  0  0  0  0
   18.1255   27.9018  198.9202 C   0  0  0  0  0  0  0  0  0  0  0  0
   17.3420   27.2661  197.7923 C   0  0  0  0  0  0  0  0  0  0  0  0
   16.5737   28.2412  197.0521 N   0  0  0  0  0  4  0  0  0  0  0  0
   15.2617   27.7170  196.7938 C   0  0  0  0  0  0  0  0  0  0  0  0
   14.1535   28.5535  197.3886 C   0  0  0  0  0  0  0  0  0  0  0  0
   13.0000   28.5599  196.3952 C   0  0  0  0  0  0  0  0  0  0  0  0
   12.4855   27.2703  196.2836 O   0  0  0  0  0  0  0  0  0  0  0  0
   11.1872   26.9317  196.0263 C   0  0  0  0  0  0  0  0  0  0  0  0
   10.1967   27.8066  196.4194 C   0  0  0  0  0  0  0  0  0  0  0  0
    8.8753   27.4935  196.1746 C   0  0  0  0  0  0  0  0  0  0  0  0
   10.5509   29.0007  197.0620 O   0  0  0  0  0  0  0  0  0  0  0  0
    9.5140   29.8108  197.5810 C   0  0  0  0  0  0  0  0  0  0  0  0
   10.7990   25.7546  195.3902 C   0  0  0  0  0  0  0  0  0  0  0  0
    9.4764   25.4522  195.1507 C   0  0  0  0  0  0  0  0  0  0  0  0
    8.4889   26.3200  195.5405 C   0  0  0  0  0  0  0  0  0  0  0  0
    7.1959   26.0317  195.3121 N   0  0  0  0  0  0  0  0  0  0  0  0
    6.8046   24.9002  194.7014 C   0  0  0  0  0  0  0  0  0  0  0  0
    7.7570   24.0548  194.3210 N   0  0  0  0  0  0  0  0  0  0  0  0
    9.0840   24.2752  194.5161 C   0  0  0  0  0  0  0  0  0  0  0  0
   10.0514   23.3510  194.0662 N   0  0  0  0  0  0  0  0  0  0  0  0
    9.8112   22.4867  192.9749 C   0  0  0  0  0  0  0  0  0  0  0  0
    8.7673   22.6434  192.1061 C   0  0  0  0  0  0  0  0  0  0  0  0
    8.5729   21.7748  191.0258 C   0  0  0  0  0  0  0  0  0  0  0  0
    7.2263   21.9881  189.9157 Cl  0  0  0  0  0  0  0  0  0  0  0  0
    9.4267   20.7244  190.7942 C   0  0  0  0  0  0  0  0  0  0  0  0
    9.2421   19.8808  189.7490 F   0  0  0  0  0  0  0  0  0  0  0  0
   10.4814   20.5523  191.6589 C   0  0  0  0  0  0  0  0  0  0  0  0
   10.6712   21.4061  192.7190 C   0  0  0  0  0  0  0  0  0  0  0  0
 20 19  2  0
 20 21  1  0
 18 13  1  0
 18 17  2  0
 18 19  1  0
 17 16  1  0
 17 22  1  0
 22 21  2  0
 22 23  1  0
 15 14  1  0
 30 28  1  0
 30 31  2  0
 31 24  1  0
 25 24  2  0
 25 26  1  0
 13 12  2  0
 16 11  2  0
  8  7  1  0
  8  9  1  0
  9 10  1  0
  2  1  1  0
  2  3  1  0
  4  3  1  0
  4  5  1  0
  7  6  1  0
  1  6  1  0
  5  6  1  0
 28 26  2  0
 28 29  1  0
 26 27  1  0
 24 23  1  0
 12 11  1  0
 12 14  1  0
 11 10  1  0
M  CHG  1   6   1
M  END
$$$$
