
     RDKit          3D

 31 34  0  0  0  0  0  0  0  0999 V2000
   17.3590   27.9604  195.5814 C   0  0  0  0  0  0  0  0  0  0  0  0
   18.8447   27.7274  195.7878 C   0  0  0  0  0  0  0  0  0  0  0  0
   19.4418   28.8359  196.3380 O   0  0  0  0  0  0  0  0  0  0  0  0
   18.6175   29.9120  196.5452 C   0  0  0  0  0  0  0  0  0  0  0  0
   17.3506   29.5715  197.2997 C   0  0  0  0  0  0  0  0  0  0  0  0
   16.7747   28.3236  196.8525 N   0  0  0  0  0  4  0  0  0  0  0  0
   15.3524   28.4751  196.7227 C   0  0  0  0  0  0  0  0  0  0  0  0
   14.7133   27.4189  195.8523 C   0  0  0  0  0  0  0  0  0  0  0  0
   13.5892   26.7806  196.6563 C   0  0  0  0  0  0  0  0  0  0  0  0
   12.4502   27.5767  196.5617 O   0  0  0  0  0  0  0  0  0  0  0  0
   11.1978   27.1658  196.2023 C   0  0  0  0  0  0  0  0  0  0  0  0
   10.1282   27.9674  196.5407 C   0  0  0  0  0  0  0  0  0  0  0  0
    8.8503   27.5803  196.1926 C   0  0  0  0  0  0  0  0  0  0  0  0
   10.3590   29.1636  197.2337 O   0  0  0  0  0  0  0  0  0  0  0  0
    9.2391   29.9370  197.6189 C   0  0  0  0  0  0  0  0  0  0  0  0
   10.9316   25.9843  195.5137 C   0  0  0  0  0  0  0  0  0  0  0  0
    9.6515   25.6077  195.1711 C   0  0  0  0  0  0  0  0  0  0  0  0
    8.5856   26.4024  195.5062 C   0  0  0  0  0  0  0  0  0  0  0  0
    7.3331   26.0414  195.1772 N   0  0  0  0  0  0  0  0  0  0  0  0
    7.0592   24.9045  194.5148 C   0  0  0  0  0  0  0  0  0  0  0  0
    8.0881   24.1297  194.1869 N   0  0  0  0  0  0  0  0  0  0  0  0
    9.3810   24.4260  194.4837 C   0  0  0  0  0  0  0  0  0  0  0  0
   10.4348   23.5753  194.0860 N   0  0  0  0  0  0  0  0  0  0  0  0
   10.2708   22.6018  193.0755 C   0  0  0  0  0  0  0  0  0  0  0  0
    9.4167   22.7505  192.0184 C   0  0  0  0  0  0  0  0  0  0  0  0
    9.2951   21.7694  191.0275 C   0  0  0  0  0  0  0  0  0  0  0  0
    8.1929   21.9736  189.6730 Cl  0  0  0  0  0  0  0  0  0  0  0  0
   10.0322   20.6117  191.0776 C   0  0  0  0  0  0  0  0  0  0  0  0
    9.9176   19.6589  190.1199 F   0  0  0  0  0  0  0  0  0  0  0  0
   10.8956   20.4460  192.1343 C   0  0  0  0  0  0  0  0  0  0  0  0
   11.0141   21.4104  193.1064 C   0  0  0  0  0  0  0  0  0  0  0  0
 20 19  2  0
 20 21  1  0
 18 13  1  0
 18 17  2  0
 18 19  1  0
 17 16  1  0
 17 22  1  0
 22 21  2  0
 22 23  1  0
 15 14  1  0
 30 28  1  0
 30 31  2  0
 31 24  1  0
 25 24  2  0
 25 26  1  0
 13 12  2  0
 16 11  2  0
  8  7  1  0
  8  9  1  0
  9 10  1  0
  2  1  1  0
  2  3  1  0
  4  3  1  0
  4  5  1  0
  7  6  1  0
  1  6  1  0
  5  6  1  0
 28 26  2  0
 28 29  1  0
 26 27  1  0
 24 23  1  0
 12 11  1  0
 12 14  1  0
 11 10  1  0
M  CHG  1   6   1
M  END
$$$$
