
     RDKit          3D

 31 34  0  0  0  0  0  0  0  0999 V2000
   17.1222   27.1654  197.7164 C   0  0  0  0  0  0  0  0  0  0  0  0
   18.2582   27.2159  198.7220 C   0  0  0  0  0  0  0  0  0  0  0  0
   19.1686   28.1876  198.3831 O   0  0  0  0  0  0  0  0  0  0  0  0
   18.9054   28.8674  197.2216 C   0  0  0  0  0  0  0  0  0  0  0  0
   17.4985   29.4194  197.1453 C   0  0  0  0  0  0  0  0  0  0  0  0
   16.5213   28.4778  197.6428 N   0  0  0  0  0  4  0  0  0  0  0  0
   15.3871   28.4587  196.7619 C   0  0  0  0  0  0  0  0  0  0  0  0
   14.2905   27.5242  197.2158 C   0  0  0  0  0  0  0  0  0  0  0  0
   13.4781   27.1395  195.9872 C   0  0  0  0  0  0  0  0  0  0  0  0
   12.2659   27.8252  196.0075 O   0  0  0  0  0  0  0  0  0  0  0  0
   11.0234   27.2868  195.8271 C   0  0  0  0  0  0  0  0  0  0  0  0
    9.9493   27.9164  196.4197 C   0  0  0  0  0  0  0  0  0  0  0  0
    8.6812   27.3972  196.2570 C   0  0  0  0  0  0  0  0  0  0  0  0
   10.1657   29.0749  197.1781 O   0  0  0  0  0  0  0  0  0  0  0  0
    9.0380   29.8274  197.5814 C   0  0  0  0  0  0  0  0  0  0  0  0
   10.7715   26.1379  195.0803 C   0  0  0  0  0  0  0  0  0  0  0  0
    9.5010   25.6284  194.9244 C   0  0  0  0  0  0  0  0  0  0  0  0
    8.4308   26.2520  195.5125 C   0  0  0  0  0  0  0  0  0  0  0  0
    7.1880   25.7604  195.3667 N   0  0  0  0  0  0  0  0  0  0  0  0
    6.9283   24.6526  194.6513 C   0  0  0  0  0  0  0  0  0  0  0  0
    7.9615   24.0435  194.0786 N   0  0  0  0  0  0  0  0  0  0  0  0
    9.2452   24.4787  194.1796 C   0  0  0  0  0  0  0  0  0  0  0  0
   10.2985   23.8031  193.5266 N   0  0  0  0  0  0  0  0  0  0  0  0
   10.0603   22.7921  192.5691 C   0  0  0  0  0  0  0  0  0  0  0  0
    9.0953   22.8809  191.6048 C   0  0  0  0  0  0  0  0  0  0  0  0
    8.9015   21.8641  190.6625 C   0  0  0  0  0  0  0  0  0  0  0  0
    7.6567   21.9912  189.4273 Cl  0  0  0  0  0  0  0  0  0  0  0  0
    9.6764   20.7303  190.6689 C   0  0  0  0  0  0  0  0  0  0  0  0
    9.4921   19.7431  189.7580 F   0  0  0  0  0  0  0  0  0  0  0  0
   10.6512   20.6249  191.6324 C   0  0  0  0  0  0  0  0  0  0  0  0
   10.8405   21.6242  192.5568 C   0  0  0  0  0  0  0  0  0  0  0  0
 20 19  2  0
 20 21  1  0
 18 13  1  0
 18 17  2  0
 18 19  1  0
 17 16  1  0
 17 22  1  0
 22 21  2  0
 22 23  1  0
 15 14  1  0
 30 28  1  0
 30 31  2  0
 31 24  1  0
 25 24  2  0
 25 26  1  0
 13 12  2  0
 16 11  2  0
  8  7  1  0
  8  9  1  0
  9 10  1  0
  2  1  1  0
  2  3  1  0
  4  3  1  0
  4  5  1  0
  7  6  1  0
  1  6  1  0
  5  6  1  0
 28 26  2  0
 28 29  1  0
 26 27  1  0
 24 23  1  0
 12 11  1  0
 12 14  1  0
 11 10  1  0
M  CHG  1   6   1
M  END
$$$$
