
     RDKit          3D

 31 34  0  0  0  0  0  0  0  0999 V2000
   16.8650   28.8776  195.6730 C   0  0  0  0  0  0  0  0  0  0  0  0
   18.3673   28.7294  195.5144 C   0  0  0  0  0  0  0  0  0  0  0  0
   19.0342   29.4519  196.4742 O   0  0  0  0  0  0  0  0  0  0  0  0
   18.2422   30.1740  197.3296 C   0  0  0  0  0  0  0  0  0  0  0  0
   17.1326   29.3626  197.9625 C   0  0  0  0  0  0  0  0  0  0  0  0
   16.5069   28.4707  197.0128 N   0  0  0  0  0  4  0  0  0  0  0  0
   15.0816   28.5168  197.1841 C   0  0  0  0  0  0  0  0  0  0  0  0
   14.3461   27.4726  196.3775 C   0  0  0  0  0  0  0  0  0  0  0  0
   13.0047   27.2305  197.0552 C   0  0  0  0  0  0  0  0  0  0  0  0
   12.0303   28.0053  196.4305 O   0  0  0  0  0  0  0  0  0  0  0  0
   10.7831   27.5950  196.0527 C   0  0  0  0  0  0  0  0  0  0  0  0
    9.7059   28.3813  196.4028 C   0  0  0  0  0  0  0  0  0  0  0  0
    8.4330   27.9943  196.0367 C   0  0  0  0  0  0  0  0  0  0  0  0
    9.9241   29.5620  197.1257 O   0  0  0  0  0  0  0  0  0  0  0  0
    8.8080   30.3807  197.4169 C   0  0  0  0  0  0  0  0  0  0  0  0
   10.5295   26.4286  195.3342 C   0  0  0  0  0  0  0  0  0  0  0  0
    9.2542   26.0520  194.9738 C   0  0  0  0  0  0  0  0  0  0  0  0
    8.1808   26.8316  195.3205 C   0  0  0  0  0  0  0  0  0  0  0  0
    6.9330   26.4704  194.9743 N   0  0  0  0  0  0  0  0  0  0  0  0
    6.6711   25.3479  194.2829 C   0  0  0  0  0  0  0  0  0  0  0  0
    7.7074   24.5879  193.9437 N   0  0  0  0  0  0  0  0  0  0  0  0
    8.9962   24.8854  194.2565 C   0  0  0  0  0  0  0  0  0  0  0  0
   10.0583   24.0514  193.8458 N   0  0  0  0  0  0  0  0  0  0  0  0
    9.9027   23.0889  192.8234 C   0  0  0  0  0  0  0  0  0  0  0  0
    8.9886   23.2047  191.8134 C   0  0  0  0  0  0  0  0  0  0  0  0
    8.8767   22.2369  190.8084 C   0  0  0  0  0  0  0  0  0  0  0  0
    7.6969   22.3983  189.5148 Cl  0  0  0  0  0  0  0  0  0  0  0  0
    9.6842   21.1261  190.7965 C   0  0  0  0  0  0  0  0  0  0  0  0
    9.5792   20.1863  189.8249 F   0  0  0  0  0  0  0  0  0  0  0  0
   10.6084   20.9940  191.8054 C   0  0  0  0  0  0  0  0  0  0  0  0
   10.7174   21.9452  192.7914 C   0  0  0  0  0  0  0  0  0  0  0  0
 20 19  2  0
 20 21  1  0
 18 13  1  0
 18 17  2  0
 18 19  1  0
 17 16  1  0
 17 22  1  0
 22 21  2  0
 22 23  1  0
 15 14  1  0
 30 28  1  0
 30 31  2  0
 31 24  1  0
 25 24  2  0
 25 26  1  0
 13 12  2  0
 16 11  2  0
  8  7  1  0
  8  9  1  0
  9 10  1  0
  2  1  1  0
  2  3  1  0
  4  3  1  0
  4  5  1  0
  7  6  1  0
  1  6  1  0
  5  6  1  0
 28 26  2  0
 28 29  1  0
 26 27  1  0
 24 23  1  0
 12 11  1  0
 12 14  1  0
 11 10  1  0
M  CHG  1   6   1
M  END
$$$$
