
     RDKit          3D

 31 34  0  0  0  0  0  0  0  0999 V2000
   17.1326   27.8405  197.5836 C   0  0  0  0  0  0  0  0  0  0  0  0
   17.8609   29.1448  197.8528 C   0  0  0  0  0  0  0  0  0  0  0  0
   18.9830   29.2497  197.0667 O   0  0  0  0  0  0  0  0  0  0  0  0
   19.2400   28.1756  196.2540 C   0  0  0  0  0  0  0  0  0  0  0  0
   18.0536   27.7479  195.4176 C   0  0  0  0  0  0  0  0  0  0  0  0
   16.8221   27.7757  196.1735 N   0  0  0  0  0  4  0  0  0  0  0  0
   16.0592   26.5936  195.8843 C   0  0  0  0  0  0  0  0  0  0  0  0
   14.6548   26.6351  196.4390 C   0  0  0  0  0  0  0  0  0  0  0  0
   13.7593   27.2530  195.3744 C   0  0  0  0  0  0  0  0  0  0  0  0
   12.5923   27.7211  195.9738 O   0  0  0  0  0  0  0  0  0  0  0  0
   11.3184   27.3041  195.7101 C   0  0  0  0  0  0  0  0  0  0  0  0
   10.2730   28.0416  196.2243 C   0  0  0  0  0  0  0  0  0  0  0  0
    8.9743   27.6465  195.9765 C   0  0  0  0  0  0  0  0  0  0  0  0
   10.5492   29.1817  196.9912 O   0  0  0  0  0  0  0  0  0  0  0  0
    9.4974   29.7438  197.7517 C   0  0  0  0  0  0  0  0  0  0  0  0
   11.0071   26.1771  194.9524 C   0  0  0  0  0  0  0  0  0  0  0  0
    9.7066   25.7920  194.7111 C   0  0  0  0  0  0  0  0  0  0  0  0
    8.6647   26.5231  195.2211 C   0  0  0  0  0  0  0  0  0  0  0  0
    7.3927   26.1532  194.9918 N   0  0  0  0  0  0  0  0  0  0  0  0
    7.0755   25.0682  194.2647 C   0  0  0  0  0  0  0  0  0  0  0  0
    8.0809   24.3553  193.7673 N   0  0  0  0  0  0  0  0  0  0  0  0
    9.3911   24.6646  193.9551 C   0  0  0  0  0  0  0  0  0  0  0  0
   10.4156   23.8827  193.3793 N   0  0  0  0  0  0  0  0  0  0  0  0
   10.1593   22.9580  192.3426 C   0  0  0  0  0  0  0  0  0  0  0  0
   10.7306   21.7175  192.2820 C   0  0  0  0  0  0  0  0  0  0  0  0
   10.4377   20.8226  191.2464 C   0  0  0  0  0  0  0  0  0  0  0  0
   11.1794   19.2299  191.1808 Cl  0  0  0  0  0  0  0  0  0  0  0  0
    9.5605   21.1564  190.2438 C   0  0  0  0  0  0  0  0  0  0  0  0
    9.2738   20.2927  189.2388 F   0  0  0  0  0  0  0  0  0  0  0  0
    8.9775   22.4005  190.2893 C   0  0  0  0  0  0  0  0  0  0  0  0
    9.2659   23.2780  191.3070 C   0  0  0  0  0  0  0  0  0  0  0  0
 20 19  2  0
 20 21  1  0
 18 13  1  0
 18 17  2  0
 18 19  1  0
 17 16  1  0
 17 22  1  0
 22 21  2  0
 22 23  1  0
 15 14  1  0
 30 28  1  0
 30 31  2  0
 31 24  1  0
 25 24  2  0
 25 26  1  0
 13 12  2  0
 16 11  2  0
  8  7  1  0
  8  9  1  0
  9 10  1  0
  2  1  1  0
  2  3  1  0
  4  3  1  0
  4  5  1  0
  7  6  1  0
  1  6  1  0
  5  6  1  0
 28 26  2  0
 28 29  1  0
 26 27  1  0
 24 23  1  0
 12 11  1  0
 12 14  1  0
 11 10  1  0
M  CHG  1   6   1
M  END
$$$$
