
     RDKit          3D

 31 34  0  0  0  0  0  0  0  0999 V2000
   17.6669   28.4048  198.5662 C   0  0  0  0  0  0  0  0  0  0  0  0
   18.6171   29.5034  199.0070 C   0  0  0  0  0  0  0  0  0  0  0  0
   19.2614   30.0555  197.9262 O   0  0  0  0  0  0  0  0  0  0  0  0
   18.9636   29.4972  196.7097 C   0  0  0  0  0  0  0  0  0  0  0  0
   17.4790   29.3918  196.4357 C   0  0  0  0  0  0  0  0  0  0  0  0
   16.7439   28.9611  197.6032 N   0  0  0  0  0  4  0  0  0  0  0  0
   15.7719   27.9767  197.2173 C   0  0  0  0  0  0  0  0  0  0  0  0
   14.8508   28.4428  196.1145 C   0  0  0  0  0  0  0  0  0  0  0  0
   13.7916   27.3676  195.9165 C   0  0  0  0  0  0  0  0  0  0  0  0
   12.5948   27.7939  196.4877 O   0  0  0  0  0  0  0  0  0  0  0  0
   11.3382   27.3782  196.1494 C   0  0  0  0  0  0  0  0  0  0  0  0
   10.2739   28.1916  196.4763 C   0  0  0  0  0  0  0  0  0  0  0  0
    8.9919   27.8000  196.1488 C   0  0  0  0  0  0  0  0  0  0  0  0
   10.5143   29.4042  197.1367 O   0  0  0  0  0  0  0  0  0  0  0  0
    9.4137   30.2575  197.3841 C   0  0  0  0  0  0  0  0  0  0  0  0
   11.0625   26.1804  195.4932 C   0  0  0  0  0  0  0  0  0  0  0  0
    9.7784   25.7995  195.1710 C   0  0  0  0  0  0  0  0  0  0  0  0
    8.7178   26.6060  195.4948 C   0  0  0  0  0  0  0  0  0  0  0  0
    7.4615   26.2408  195.1855 N   0  0  0  0  0  0  0  0  0  0  0  0
    7.1785   25.0884  194.5544 C   0  0  0  0  0  0  0  0  0  0  0  0
    8.2022   24.3021  194.2377 N   0  0  0  0  0  0  0  0  0  0  0  0
    9.4985   24.6016  194.5161 C   0  0  0  0  0  0  0  0  0  0  0  0
   10.5462   23.7376  194.1313 N   0  0  0  0  0  0  0  0  0  0  0  0
   10.3104   22.5572  193.3919 C   0  0  0  0  0  0  0  0  0  0  0  0
    9.1408   21.8520  193.4525 C   0  0  0  0  0  0  0  0  0  0  0  0
    8.9392   20.6953  192.6905 C   0  0  0  0  0  0  0  0  0  0  0  0
    7.4298   19.7979  192.7777 Cl  0  0  0  0  0  0  0  0  0  0  0  0
    9.9132   20.2192  191.8475 C   0  0  0  0  0  0  0  0  0  0  0  0
    9.7221   19.0993  191.1076 F   0  0  0  0  0  0  0  0  0  0  0  0
   11.0958   20.9163  191.7751 C   0  0  0  0  0  0  0  0  0  0  0  0
   11.2922   22.0521  192.5236 C   0  0  0  0  0  0  0  0  0  0  0  0
 20 19  2  0
 20 21  1  0
 18 13  1  0
 18 17  2  0
 18 19  1  0
 17 16  1  0
 17 22  1  0
 22 21  2  0
 22 23  1  0
 15 14  1  0
 30 28  1  0
 30 31  2  0
 31 24  1  0
 25 24  2  0
 25 26  1  0
 13 12  2  0
 16 11  2  0
  8  7  1  0
  8  9  1  0
  9 10  1  0
  2  1  1  0
  2  3  1  0
  4  3  1  0
  4  5  1  0
  7  6  1  0
  1  6  1  0
  5  6  1  0
 28 26  2  0
 28 29  1  0
 26 27  1  0
 24 23  1  0
 12 11  1  0
 12 14  1  0
 11 10  1  0
M  CHG  1   6   1
M  END
$$$$
