
     RDKit          3D

 31 34  0  0  0  0  0  0  0  0999 V2000
   17.2612   29.7039  197.4166 C   0  0  0  0  0  0  0  0  0  0  0  0
   18.7437   29.9229  197.1750 C   0  0  0  0  0  0  0  0  0  0  0  0
   19.4388   28.7442  197.2987 O   0  0  0  0  0  0  0  0  0  0  0  0
   18.6911   27.6486  197.6463 C   0  0  0  0  0  0  0  0  0  0  0  0
   17.4684   27.4461  196.7779 C   0  0  0  0  0  0  0  0  0  0  0  0
   16.7947   28.6930  196.4948 N   0  0  0  0  0  4  0  0  0  0  0  0
   15.3768   28.5096  196.6311 C   0  0  0  0  0  0  0  0  0  0  0  0
   14.8109   27.4797  195.6820 C   0  0  0  0  0  0  0  0  0  0  0  0
   13.5663   26.8918  196.3322 C   0  0  0  0  0  0  0  0  0  0  0  0
   12.4720   27.7032  196.0419 O   0  0  0  0  0  0  0  0  0  0  0  0
   11.2008   27.2865  195.7648 C   0  0  0  0  0  0  0  0  0  0  0  0
   10.1511   28.0708  196.1941 C   0  0  0  0  0  0  0  0  0  0  0  0
    8.8551   27.6773  195.9305 C   0  0  0  0  0  0  0  0  0  0  0  0
   10.4204   29.2560  196.8919 O   0  0  0  0  0  0  0  0  0  0  0  0
    9.3441   29.9076  197.5383 C   0  0  0  0  0  0  0  0  0  0  0  0
   10.8965   26.1155  195.0741 C   0  0  0  0  0  0  0  0  0  0  0  0
    9.5985   25.7324  194.8163 C   0  0  0  0  0  0  0  0  0  0  0  0
    8.5523   26.5099  195.2419 C   0  0  0  0  0  0  0  0  0  0  0  0
    7.2828   26.1425  194.9960 N   0  0  0  0  0  0  0  0  0  0  0  0
    6.9721   25.0155  194.3328 C   0  0  0  0  0  0  0  0  0  0  0  0
    7.9817   24.2574  193.9175 N   0  0  0  0  0  0  0  0  0  0  0  0
    9.2899   24.5612  194.1272 C   0  0  0  0  0  0  0  0  0  0  0  0
   10.3200   23.7287  193.6389 N   0  0  0  0  0  0  0  0  0  0  0  0
   10.0700   22.6940  192.7101 C   0  0  0  0  0  0  0  0  0  0  0  0
    9.4171   22.8879  191.5247 C   0  0  0  0  0  0  0  0  0  0  0  0
    9.2037   21.8392  190.6226 C   0  0  0  0  0  0  0  0  0  0  0  0
    8.3628   22.1025  189.1012 Cl  0  0  0  0  0  0  0  0  0  0  0  0
    9.6433   20.5666  190.8933 C   0  0  0  0  0  0  0  0  0  0  0  0
    9.4388   19.5479  190.0222 F   0  0  0  0  0  0  0  0  0  0  0  0
   10.3012   20.3543  192.0814 C   0  0  0  0  0  0  0  0  0  0  0  0
   10.5103   21.3850  192.9661 C   0  0  0  0  0  0  0  0  0  0  0  0
 20 19  2  0
 20 21  1  0
 18 13  1  0
 18 17  2  0
 18 19  1  0
 17 16  1  0
 17 22  1  0
 22 21  2  0
 22 23  1  0
 15 14  1  0
 30 28  1  0
 30 31  2  0
 31 24  1  0
 25 24  2  0
 25 26  1  0
 13 12  2  0
 16 11  2  0
  8  7  1  0
  8  9  1  0
  9 10  1  0
  2  1  1  0
  2  3  1  0
  4  3  1  0
  4  5  1  0
  7  6  1  0
  1  6  1  0
  5  6  1  0
 28 26  2  0
 28 29  1  0
 26 27  1  0
 24 23  1  0
 12 11  1  0
 12 14  1  0
 11 10  1  0
M  CHG  1   6   1
M  END
$$$$
