
     RDKit          3D

 31 34  0  0  0  0  0  0  0  0999 V2000
   17.2357   28.8340  196.4085 C   0  0  0  0  0  0  0  0  0  0  0  0
   18.6712   28.8251  196.9018 C   0  0  0  0  0  0  0  0  0  0  0  0
   18.9883   30.0179  197.5058 O   0  0  0  0  0  0  0  0  0  0  0  0
   17.9961   30.9645  197.5060 C   0  0  0  0  0  0  0  0  0  0  0  0
   16.6683   30.4538  198.0219 C   0  0  0  0  0  0  0  0  0  0  0  0
   16.3715   29.1279  197.5292 N   0  0  0  0  0  4  0  0  0  0  0  0
   14.9942   29.0667  197.1266 C   0  0  0  0  0  0  0  0  0  0  0  0
   14.3623   27.7135  197.3529 C   0  0  0  0  0  0  0  0  0  0  0  0
   13.5364   27.3808  196.1182 C   0  0  0  0  0  0  0  0  0  0  0  0
   12.3198   28.0556  196.1864 O   0  0  0  0  0  0  0  0  0  0  0  0
   11.0773   27.5116  196.0227 C   0  0  0  0  0  0  0  0  0  0  0  0
   10.0024   28.1621  196.5906 C   0  0  0  0  0  0  0  0  0  0  0  0
    8.7344   27.6381  196.4439 C   0  0  0  0  0  0  0  0  0  0  0  0
   10.2179   29.3466  197.3082 O   0  0  0  0  0  0  0  0  0  0  0  0
    9.4591   30.4868  196.9551 C   0  0  0  0  0  0  0  0  0  0  0  0
   10.8263   26.3372  195.3164 C   0  0  0  0  0  0  0  0  0  0  0  0
    9.5559   25.8231  195.1761 C   0  0  0  0  0  0  0  0  0  0  0  0
    8.4849   26.4674  195.7397 C   0  0  0  0  0  0  0  0  0  0  0  0
    7.2422   25.9715  195.6090 N   0  0  0  0  0  0  0  0  0  0  0  0
    6.9833   24.8393  194.9326 C   0  0  0  0  0  0  0  0  0  0  0  0
    8.0173   24.2100  194.3837 N   0  0  0  0  0  0  0  0  0  0  0  0
    9.3010   24.6479  194.4717 C   0  0  0  0  0  0  0  0  0  0  0  0
   10.3553   23.9493  193.8450 N   0  0  0  0  0  0  0  0  0  0  0  0
   10.1196   22.8694  192.9652 C   0  0  0  0  0  0  0  0  0  0  0  0
    9.1383   22.8743  192.0134 C   0  0  0  0  0  0  0  0  0  0  0  0
    8.9474   21.7905  191.1484 C   0  0  0  0  0  0  0  0  0  0  0  0
    7.6817   21.8099  189.9283 Cl  0  0  0  0  0  0  0  0  0  0  0  0
    9.7417   20.6725  191.2218 C   0  0  0  0  0  0  0  0  0  0  0  0
    9.5603   19.6205  190.3859 F   0  0  0  0  0  0  0  0  0  0  0  0
   10.7330   20.6511  192.1738 C   0  0  0  0  0  0  0  0  0  0  0  0
   10.9195   21.7162  193.0223 C   0  0  0  0  0  0  0  0  0  0  0  0
 20 19  2  0
 20 21  1  0
 18 13  1  0
 18 17  2  0
 18 19  1  0
 17 16  1  0
 17 22  1  0
 22 21  2  0
 22 23  1  0
 15 14  1  0
 30 28  1  0
 30 31  2  0
 31 24  1  0
 25 24  2  0
 25 26  1  0
 13 12  2  0
 16 11  2  0
  8  7  1  0
  8  9  1  0
  9 10  1  0
  2  1  1  0
  2  3  1  0
  4  3  1  0
  4  5  1  0
  7  6  1  0
  1  6  1  0
  5  6  1  0
 28 26  2  0
 28 29  1  0
 26 27  1  0
 24 23  1  0
 12 11  1  0
 12 14  1  0
 11 10  1  0
M  CHG  1   6   1
M  END
$$$$
