
     RDKit          3D

 31 34  0  0  0  0  0  0  0  0999 V2000
   17.6984   28.1201  196.6825 C   0  0  0  0  0  0  0  0  0  0  0  0
   19.0813   27.5829  196.3617 C   0  0  0  0  0  0  0  0  0  0  0  0
   19.5231   26.7440  197.3562 O   0  0  0  0  0  0  0  0  0  0  0  0
   18.6778   26.5957  198.4257 C   0  0  0  0  0  0  0  0  0  0  0  0
   17.2590   26.2425  198.0354 C   0  0  0  0  0  0  0  0  0  0  0  0
   16.8109   26.9979  196.8876 N   0  0  0  0  0  4  0  0  0  0  0  0
   15.4693   27.4577  197.1145 C   0  0  0  0  0  0  0  0  0  0  0  0
   14.6824   27.6644  195.8418 C   0  0  0  0  0  0  0  0  0  0  0  0
   13.4412   26.7867  195.9224 C   0  0  0  0  0  0  0  0  0  0  0  0
   12.3086   27.5798  195.7530 O   0  0  0  0  0  0  0  0  0  0  0  0
   11.0341   27.1412  195.5302 C   0  0  0  0  0  0  0  0  0  0  0  0
    9.9910   27.8940  196.0267 C   0  0  0  0  0  0  0  0  0  0  0  0
    8.6919   27.4778  195.8191 C   0  0  0  0  0  0  0  0  0  0  0  0
   10.2701   29.0708  196.7348 O   0  0  0  0  0  0  0  0  0  0  0  0
    9.1804   29.8613  197.1688 C   0  0  0  0  0  0  0  0  0  0  0  0
   10.7201   25.9776  194.8313 C   0  0  0  0  0  0  0  0  0  0  0  0
    9.4191   25.5717  194.6298 C   0  0  0  0  0  0  0  0  0  0  0  0
    8.3795   26.3179  195.1223 C   0  0  0  0  0  0  0  0  0  0  0  0
    7.1072   25.9279  194.9316 N   0  0  0  0  0  0  0  0  0  0  0  0
    6.7873   24.8077  194.2613 C   0  0  0  0  0  0  0  0  0  0  0  0
    7.7905   24.0799  193.7812 N   0  0  0  0  0  0  0  0  0  0  0  0
    9.1009   24.4077  193.9326 C   0  0  0  0  0  0  0  0  0  0  0  0
   10.1225   23.6075  193.3771 N   0  0  0  0  0  0  0  0  0  0  0  0
    9.8917   22.7589  192.2716 C   0  0  0  0  0  0  0  0  0  0  0  0
   10.5966   21.6097  192.0446 C   0  0  0  0  0  0  0  0  0  0  0  0
   10.3261   20.7860  190.9457 C   0  0  0  0  0  0  0  0  0  0  0  0
   11.2401   19.3104  190.6658 Cl  0  0  0  0  0  0  0  0  0  0  0  0
    9.3371   21.1007  190.0463 C   0  0  0  0  0  0  0  0  0  0  0  0
    9.0718   20.3056  188.9806 F   0  0  0  0  0  0  0  0  0  0  0  0
    8.6191   22.2533  190.2595 C   0  0  0  0  0  0  0  0  0  0  0  0
    8.8857   23.0611  191.3391 C   0  0  0  0  0  0  0  0  0  0  0  0
 20 19  2  0
 20 21  1  0
 18 13  1  0
 18 17  2  0
 18 19  1  0
 17 16  1  0
 17 22  1  0
 22 21  2  0
 22 23  1  0
 15 14  1  0
 30 28  1  0
 30 31  2  0
 31 24  1  0
 25 24  2  0
 25 26  1  0
 13 12  2  0
 16 11  2  0
  8  7  1  0
  8  9  1  0
  9 10  1  0
  2  1  1  0
  2  3  1  0
  4  3  1  0
  4  5  1  0
  7  6  1  0
  1  6  1  0
  5  6  1  0
 28 26  2  0
 28 29  1  0
 26 27  1  0
 24 23  1  0
 12 11  1  0
 12 14  1  0
 11 10  1  0
M  CHG  1   6   1
M  END
$$$$
