
     RDKit          3D

 31 34  0  0  0  0  0  0  0  0999 V2000
   18.1708   26.3521  195.7838 C   0  0  0  0  0  0  0  0  0  0  0  0
   19.0023   25.8841  194.6033 C   0  0  0  0  0  0  0  0  0  0  0  0
   18.5862   24.6479  194.1712 O   0  0  0  0  0  0  0  0  0  0  0  0
   17.5671   24.0802  194.8918 C   0  0  0  0  0  0  0  0  0  0  0  0
   16.3768   24.9942  195.0863 C   0  0  0  0  0  0  0  0  0  0  0  0
   16.7801   26.3485  195.3903 N   0  0  0  0  0  4  0  0  0  0  0  0
   15.9600   26.8625  196.4514 C   0  0  0  0  0  0  0  0  0  0  0  0
   15.0992   28.0309  196.0323 C   0  0  0  0  0  0  0  0  0  0  0  0
   13.8919   27.4697  195.2941 C   0  0  0  0  0  0  0  0  0  0  0  0
   12.8804   27.1977  196.2122 O   0  0  0  0  0  0  0  0  0  0  0  0
   11.5857   26.8710  195.9234 C   0  0  0  0  0  0  0  0  0  0  0  0
   10.5937   27.7539  196.2946 C   0  0  0  0  0  0  0  0  0  0  0  0
    9.2758   27.4529  196.0177 C   0  0  0  0  0  0  0  0  0  0  0  0
   10.9430   28.9436  196.9479 O   0  0  0  0  0  0  0  0  0  0  0  0
    9.9207   29.8863  197.2068 C   0  0  0  0  0  0  0  0  0  0  0  0
   11.2024   25.6985  195.2758 C   0  0  0  0  0  0  0  0  0  0  0  0
    9.8833   25.4082  195.0043 C   0  0  0  0  0  0  0  0  0  0  0  0
    8.8944   26.2840  195.3722 C   0  0  0  0  0  0  0  0  0  0  0  0
    7.6047   26.0075  195.1125 N   0  0  0  0  0  0  0  0  0  0  0  0
    7.2182   24.8806  194.4904 C   0  0  0  0  0  0  0  0  0  0  0  0
    8.1720   24.0276  194.1311 N   0  0  0  0  0  0  0  0  0  0  0  0
    9.4958   24.2359  194.3582 C   0  0  0  0  0  0  0  0  0  0  0  0
   10.4655   23.3040  193.9296 N   0  0  0  0  0  0  0  0  0  0  0  0
   10.1219   22.1557  193.1820 C   0  0  0  0  0  0  0  0  0  0  0  0
    8.9155   21.5214  193.2883 C   0  0  0  0  0  0  0  0  0  0  0  0
    8.6064   20.3950  192.5168 C   0  0  0  0  0  0  0  0  0  0  0  0
    7.0508   19.5890  192.6632 Cl  0  0  0  0  0  0  0  0  0  0  0  0
    9.5072   19.8786  191.6179 C   0  0  0  0  0  0  0  0  0  0  0  0
    9.2118   18.7879  190.8687 F   0  0  0  0  0  0  0  0  0  0  0  0
   10.7254   20.5043  191.4991 C   0  0  0  0  0  0  0  0  0  0  0  0
   11.0274   21.6103  192.2570 C   0  0  0  0  0  0  0  0  0  0  0  0
 20 19  2  0
 20 21  1  0
 18 13  1  0
 18 17  2  0
 18 19  1  0
 17 16  1  0
 17 22  1  0
 22 21  2  0
 22 23  1  0
 15 14  1  0
 30 28  1  0
 30 31  2  0
 31 24  1  0
 25 24  2  0
 25 26  1  0
 13 12  2  0
 16 11  2  0
  8  7  1  0
  8  9  1  0
  9 10  1  0
  2  1  1  0
  2  3  1  0
  4  3  1  0
  4  5  1  0
  7  6  1  0
  1  6  1  0
  5  6  1  0
 28 26  2  0
 28 29  1  0
 26 27  1  0
 24 23  1  0
 12 11  1  0
 12 14  1  0
 11 10  1  0
M  CHG  1   6   1
M  END
$$$$
