
     RDKit          3D

 31 34  0  0  0  0  0  0  0  0999 V2000
   17.4031   27.1221  195.4143 C   0  0  0  0  0  0  0  0  0  0  0  0
   18.6492   26.3970  195.8891 C   0  0  0  0  0  0  0  0  0  0  0  0
   19.5209   27.2686  196.4962 O   0  0  0  0  0  0  0  0  0  0  0  0
   19.1286   28.5823  196.5151 C   0  0  0  0  0  0  0  0  0  0  0  0
   17.7265   28.7910  197.0448 C   0  0  0  0  0  0  0  0  0  0  0  0
   16.8074   27.7924  196.5479 N   0  0  0  0  0  4  0  0  0  0  0  0
   15.5778   28.4268  196.1627 C   0  0  0  0  0  0  0  0  0  0  0  0
   14.3904   27.9827  196.9841 C   0  0  0  0  0  0  0  0  0  0  0  0
   13.4403   27.2420  196.0535 C   0  0  0  0  0  0  0  0  0  0  0  0
   12.2870   28.0030  195.8773 O   0  0  0  0  0  0  0  0  0  0  0  0
   11.0184   27.5284  195.6988 C   0  0  0  0  0  0  0  0  0  0  0  0
    9.9729   28.2483  196.2371 C   0  0  0  0  0  0  0  0  0  0  0  0
    8.6796   27.7954  196.0748 C   0  0  0  0  0  0  0  0  0  0  0  0
   10.2435   29.4298  196.9408 O   0  0  0  0  0  0  0  0  0  0  0  0
    9.1478   30.1925  197.4082 C   0  0  0  0  0  0  0  0  0  0  0  0
   10.7128   26.3592  195.0055 C   0  0  0  0  0  0  0  0  0  0  0  0
    9.4176   25.9164  194.8495 C   0  0  0  0  0  0  0  0  0  0  0  0
    8.3756   26.6299  195.3837 C   0  0  0  0  0  0  0  0  0  0  0  0
    7.1090   26.2039  195.2374 N   0  0  0  0  0  0  0  0  0  0  0  0
    6.7974   25.0777  194.5733 C   0  0  0  0  0  0  0  0  0  0  0  0
    7.8029   24.3815  194.0530 N   0  0  0  0  0  0  0  0  0  0  0  0
    9.1080   24.7467  194.1581 C   0  0  0  0  0  0  0  0  0  0  0  0
   10.1312   23.9790  193.5614 N   0  0  0  0  0  0  0  0  0  0  0  0
    9.8516   22.9437  192.6419 C   0  0  0  0  0  0  0  0  0  0  0  0
    8.9506   23.0667  191.6210 C   0  0  0  0  0  0  0  0  0  0  0  0
    8.7138   22.0225  190.7194 C   0  0  0  0  0  0  0  0  0  0  0  0
    7.5524   22.1941  189.4106 Cl  0  0  0  0  0  0  0  0  0  0  0  0
    9.3798   20.8261  190.8247 C   0  0  0  0  0  0  0  0  0  0  0  0
    9.1536   19.8121  189.9536 F   0  0  0  0  0  0  0  0  0  0  0  0
   10.2890   20.6857  191.8462 C   0  0  0  0  0  0  0  0  0  0  0  0
   10.5206   21.7120  192.7305 C   0  0  0  0  0  0  0  0  0  0  0  0
 20 19  2  0
 20 21  1  0
 18 13  1  0
 18 17  2  0
 18 19  1  0
 17 16  1  0
 17 22  1  0
 22 21  2  0
 22 23  1  0
 15 14  1  0
 30 28  1  0
 30 31  2  0
 31 24  1  0
 25 24  2  0
 25 26  1  0
 13 12  2  0
 16 11  2  0
  8  7  1  0
  8  9  1  0
  9 10  1  0
  2  1  1  0
  2  3  1  0
  4  3  1  0
  4  5  1  0
  7  6  1  0
  1  6  1  0
  5  6  1  0
 28 26  2  0
 28 29  1  0
 26 27  1  0
 24 23  1  0
 12 11  1  0
 12 14  1  0
 11 10  1  0
M  CHG  1   6   1
M  END
$$$$
