
     RDKit          3D

 31 34  0  0  0  0  0  0  0  0999 V2000
   16.9366   30.0471  197.3007 C   0  0  0  0  0  0  0  0  0  0  0  0
   18.4385   30.2308  197.4214 C   0  0  0  0  0  0  0  0  0  0  0  0
   18.9681   29.3464  198.3298 O   0  0  0  0  0  0  0  0  0  0  0  0
   18.0636   28.5301  198.9590 C   0  0  0  0  0  0  0  0  0  0  0  0
   17.1314   27.8093  198.0096 C   0  0  0  0  0  0  0  0  0  0  0  0
   16.6740   28.6714  196.9436 N   0  0  0  0  0  4  0  0  0  0  0  0
   15.2670   28.4691  196.7382 C   0  0  0  0  0  0  0  0  0  0  0  0
   14.9229   27.0739  196.2726 C   0  0  0  0  0  0  0  0  0  0  0  0
   13.7143   27.1822  195.3534 C   0  0  0  0  0  0  0  0  0  0  0  0
   12.6062   27.5766  196.0995 O   0  0  0  0  0  0  0  0  0  0  0  0
   11.3106   27.1938  195.8966 C   0  0  0  0  0  0  0  0  0  0  0  0
   10.3081   28.0248  196.3504 C   0  0  0  0  0  0  0  0  0  0  0  0
    8.9891   27.6665  196.1614 C   0  0  0  0  0  0  0  0  0  0  0  0
   10.6482   29.2209  196.9969 O   0  0  0  0  0  0  0  0  0  0  0  0
    9.5999   30.0368  197.4827 C   0  0  0  0  0  0  0  0  0  0  0  0
   10.9363   26.0133  195.2584 C   0  0  0  0  0  0  0  0  0  0  0  0
    9.6159   25.6656  195.0750 C   0  0  0  0  0  0  0  0  0  0  0  0
    8.6166   26.4896  195.5252 C   0  0  0  0  0  0  0  0  0  0  0  0
    7.3257   26.1569  195.3518 N   0  0  0  0  0  0  0  0  0  0  0  0
    6.9478   25.0214  194.7400 C   0  0  0  0  0  0  0  0  0  0  0  0
    7.9117   24.2183  194.3012 N   0  0  0  0  0  0  0  0  0  0  0  0
    9.2374   24.4850  194.4386 C   0  0  0  0  0  0  0  0  0  0  0  0
   10.2158   23.6048  193.9283 N   0  0  0  0  0  0  0  0  0  0  0  0
    9.8974   22.5863  193.0026 C   0  0  0  0  0  0  0  0  0  0  0  0
    8.9497   22.7250  192.0272 C   0  0  0  0  0  0  0  0  0  0  0  0
    8.6749   21.6974  191.1174 C   0  0  0  0  0  0  0  0  0  0  0  0
    7.4535   21.8891  189.8673 Cl  0  0  0  0  0  0  0  0  0  0  0  0
    9.3493   20.5021  191.1684 C   0  0  0  0  0  0  0  0  0  0  0  0
    9.0864   19.5041  190.2890 F   0  0  0  0  0  0  0  0  0  0  0  0
   10.3053   20.3459  192.1437 C   0  0  0  0  0  0  0  0  0  0  0  0
   10.5742   21.3559  193.0362 C   0  0  0  0  0  0  0  0  0  0  0  0
 20 19  2  0
 20 21  1  0
 18 13  1  0
 18 17  2  0
 18 19  1  0
 17 16  1  0
 17 22  1  0
 22 21  2  0
 22 23  1  0
 15 14  1  0
 30 28  1  0
 30 31  2  0
 31 24  1  0
 25 24  2  0
 25 26  1  0
 13 12  2  0
 16 11  2  0
  8  7  1  0
  8  9  1  0
  9 10  1  0
  2  1  1  0
  2  3  1  0
  4  3  1  0
  4  5  1  0
  7  6  1  0
  1  6  1  0
  5  6  1  0
 28 26  2  0
 28 29  1  0
 26 27  1  0
 24 23  1  0
 12 11  1  0
 12 14  1  0
 11 10  1  0
M  CHG  1   6   1
M  END
$$$$
