
     RDKit          3D

 31 34  0  0  0  0  0  0  0  0999 V2000
   18.0990   28.0722  195.7658 C   0  0  0  0  0  0  0  0  0  0  0  0
   19.3686   27.3655  196.2046 C   0  0  0  0  0  0  0  0  0  0  0  0
   19.5530   27.4882  197.5607 O   0  0  0  0  0  0  0  0  0  0  0  0
   18.6118   28.2346  198.2219 C   0  0  0  0  0  0  0  0  0  0  0  0
   17.1873   27.8204  197.9231 C   0  0  0  0  0  0  0  0  0  0  0  0
   16.9924   27.5295  196.5209 N   0  0  0  0  0  4  0  0  0  0  0  0
   15.7552   28.1119  196.0814 C   0  0  0  0  0  0  0  0  0  0  0  0
   14.6122   27.8899  197.0436 C   0  0  0  0  0  0  0  0  0  0  0  0
   13.5687   27.0430  196.3287 C   0  0  0  0  0  0  0  0  0  0  0  0
   12.4144   27.8002  196.1429 O   0  0  0  0  0  0  0  0  0  0  0  0
   11.1507   27.3214  195.9425 C   0  0  0  0  0  0  0  0  0  0  0  0
   10.0923   28.0482  196.4452 C   0  0  0  0  0  0  0  0  0  0  0  0
    8.8036   27.5913  196.2601 C   0  0  0  0  0  0  0  0  0  0  0  0
   10.3455   29.2407  197.1366 O   0  0  0  0  0  0  0  0  0  0  0  0
    9.2390   30.0177  197.5520 C   0  0  0  0  0  0  0  0  0  0  0  0
   10.8622   26.1412  195.2605 C   0  0  0  0  0  0  0  0  0  0  0  0
    9.5714   25.6945  195.0815 C   0  0  0  0  0  0  0  0  0  0  0  0
    8.5167   26.4148  195.5803 C   0  0  0  0  0  0  0  0  0  0  0  0
    7.2541   25.9850  195.4114 N   0  0  0  0  0  0  0  0  0  0  0  0
    6.9589   24.8483  194.7577 C   0  0  0  0  0  0  0  0  0  0  0  0
    7.9769   24.1455  194.2717 N   0  0  0  0  0  0  0  0  0  0  0  0
    9.2788   24.5138  194.4013 C   0  0  0  0  0  0  0  0  0  0  0  0
   10.3162   23.7382  193.8405 N   0  0  0  0  0  0  0  0  0  0  0  0
   10.0616   22.7113  192.9044 C   0  0  0  0  0  0  0  0  0  0  0  0
    9.1367   22.8176  191.9033 C   0  0  0  0  0  0  0  0  0  0  0  0
    8.9256   21.7831  190.9843 C   0  0  0  0  0  0  0  0  0  0  0  0
    7.7330   21.9330  189.7011 Cl  0  0  0  0  0  0  0  0  0  0  0  0
    9.6421   20.6134  191.0518 C   0  0  0  0  0  0  0  0  0  0  0  0
    9.4409   19.6090  190.1637 F   0  0  0  0  0  0  0  0  0  0  0  0
   10.5759   20.4900  192.0531 C   0  0  0  0  0  0  0  0  0  0  0  0
   10.7823   21.5067  192.9545 C   0  0  0  0  0  0  0  0  0  0  0  0
 20 19  2  0
 20 21  1  0
 18 13  1  0
 18 17  2  0
 18 19  1  0
 17 16  1  0
 17 22  1  0
 22 21  2  0
 22 23  1  0
 15 14  1  0
 30 28  1  0
 30 31  2  0
 31 24  1  0
 25 24  2  0
 25 26  1  0
 13 12  2  0
 16 11  2  0
  8  7  1  0
  8  9  1  0
  9 10  1  0
  2  1  1  0
  2  3  1  0
  4  3  1  0
  4  5  1  0
  7  6  1  0
  1  6  1  0
  5  6  1  0
 28 26  2  0
 28 29  1  0
 26 27  1  0
 24 23  1  0
 12 11  1  0
 12 14  1  0
 11 10  1  0
M  CHG  1   6   1
M  END
$$$$
