
     RDKit          3D

 31 34  0  0  0  0  0  0  0  0999 V2000
   17.9132   28.5753  197.0767 C   0  0  0  0  0  0  0  0  0  0  0  0
   19.1962   28.0061  197.6546 C   0  0  0  0  0  0  0  0  0  0  0  0
   19.0218   27.6422  198.9681 O   0  0  0  0  0  0  0  0  0  0  0  0
   17.7808   27.8954  199.4937 C   0  0  0  0  0  0  0  0  0  0  0  0
   16.6427   27.3657  198.6487 C   0  0  0  0  0  0  0  0  0  0  0  0
   16.8661   27.5923  197.2389 N   0  0  0  0  0  4  0  0  0  0  0  0
   15.6491   28.0550  196.6324 C   0  0  0  0  0  0  0  0  0  0  0  0
   14.8607   26.9581  195.9564 C   0  0  0  0  0  0  0  0  0  0  0  0
   13.5329   26.8290  196.6897 C   0  0  0  0  0  0  0  0  0  0  0  0
   12.5437   27.4884  195.9639 O   0  0  0  0  0  0  0  0  0  0  0  0
   11.2658   27.0551  195.7505 C   0  0  0  0  0  0  0  0  0  0  0  0
   10.2286   27.8261  196.2312 C   0  0  0  0  0  0  0  0  0  0  0  0
    8.9263   27.4157  196.0326 C   0  0  0  0  0  0  0  0  0  0  0  0
   10.5169   29.0153  196.9145 O   0  0  0  0  0  0  0  0  0  0  0  0
    9.4404   29.8706  197.2465 C   0  0  0  0  0  0  0  0  0  0  0  0
   10.9426   25.8795  195.0761 C   0  0  0  0  0  0  0  0  0  0  0  0
    9.6384   25.4795  194.8833 C   0  0  0  0  0  0  0  0  0  0  0  0
    8.6048   26.2439  195.3603 C   0  0  0  0  0  0  0  0  0  0  0  0
    7.3294   25.8598  195.1779 N   0  0  0  0  0  0  0  0  0  0  0  0
    7.0008   24.7283  194.5313 C   0  0  0  0  0  0  0  0  0  0  0  0
    7.9982   23.9829  194.0664 N   0  0  0  0  0  0  0  0  0  0  0  0
    9.3111   24.3037  194.2107 C   0  0  0  0  0  0  0  0  0  0  0  0
   10.3263   23.4843  193.6719 N   0  0  0  0  0  0  0  0  0  0  0  0
   10.0417   22.4326  192.7726 C   0  0  0  0  0  0  0  0  0  0  0  0
    8.9804   21.5834  192.9191 C   0  0  0  0  0  0  0  0  0  0  0  0
    8.7221   20.5632  191.9962 C   0  0  0  0  0  0  0  0  0  0  0  0
    7.3532   19.4781  192.1964 Cl  0  0  0  0  0  0  0  0  0  0  0  0
    9.5286   20.3728  190.9011 C   0  0  0  0  0  0  0  0  0  0  0  0
    9.2820   19.3860  190.0047 F   0  0  0  0  0  0  0  0  0  0  0  0
   10.6006   21.2178  190.7392 C   0  0  0  0  0  0  0  0  0  0  0  0
   10.8529   22.2193  191.6460 C   0  0  0  0  0  0  0  0  0  0  0  0
 20 19  2  0
 20 21  1  0
 18 13  1  0
 18 17  2  0
 18 19  1  0
 17 16  1  0
 17 22  1  0
 22 21  2  0
 22 23  1  0
 15 14  1  0
 30 28  1  0
 30 31  2  0
 31 24  1  0
 25 24  2  0
 25 26  1  0
 13 12  2  0
 16 11  2  0
  8  7  1  0
  8  9  1  0
  9 10  1  0
  2  1  1  0
  2  3  1  0
  4  3  1  0
  4  5  1  0
  7  6  1  0
  1  6  1  0
  5  6  1  0
 28 26  2  0
 28 29  1  0
 26 27  1  0
 24 23  1  0
 12 11  1  0
 12 14  1  0
 11 10  1  0
M  CHG  1   6   1
M  END
$$$$
