
     RDKit          3D

 31 34  0  0  0  0  0  0  0  0999 V2000
   16.8075   29.8192  197.8674 C   0  0  0  0  0  0  0  0  0  0  0  0
   18.3032   30.0763  197.8362 C   0  0  0  0  0  0  0  0  0  0  0  0
   18.9739   29.1554  198.6043 O   0  0  0  0  0  0  0  0  0  0  0  0
   18.1864   28.2441  199.2600 C   0  0  0  0  0  0  0  0  0  0  0  0
   17.1862   27.5477  198.3630 C   0  0  0  0  0  0  0  0  0  0  0  0
   16.5700   28.4625  197.4290 N   0  0  0  0  0  4  0  0  0  0  0  0
   15.1597   28.1988  197.3643 C   0  0  0  0  0  0  0  0  0  0  0  0
   14.6398   28.0572  195.9532 C   0  0  0  0  0  0  0  0  0  0  0  0
   13.5856   26.9590  195.9608 C   0  0  0  0  0  0  0  0  0  0  0  0
   12.4081   27.4593  196.5118 O   0  0  0  0  0  0  0  0  0  0  0  0
   11.1340   27.1282  196.1466 C   0  0  0  0  0  0  0  0  0  0  0  0
   10.1175   28.0034  196.4660 C   0  0  0  0  0  0  0  0  0  0  0  0
    8.8194   27.6978  196.1116 C   0  0  0  0  0  0  0  0  0  0  0  0
   10.4221   29.1902  197.1465 O   0  0  0  0  0  0  0  0  0  0  0  0
    9.3514   30.0286  197.5355 C   0  0  0  0  0  0  0  0  0  0  0  0
   10.7950   25.9584  195.4700 C   0  0  0  0  0  0  0  0  0  0  0  0
    9.4954   25.6635  195.1209 C   0  0  0  0  0  0  0  0  0  0  0  0
    8.4822   26.5316  195.4372 C   0  0  0  0  0  0  0  0  0  0  0  0
    7.2111   26.2505  195.1017 N   0  0  0  0  0  0  0  0  0  0  0  0
    6.8671   25.1261  194.4507 C   0  0  0  0  0  0  0  0  0  0  0  0
    7.8447   24.2805  194.1411 N   0  0  0  0  0  0  0  0  0  0  0  0
    9.1521   24.4938  194.4455 C   0  0  0  0  0  0  0  0  0  0  0  0
   10.1499   23.5699  194.0672 N   0  0  0  0  0  0  0  0  0  0  0  0
    9.9275   22.5932  193.0711 C   0  0  0  0  0  0  0  0  0  0  0  0
    9.0284   22.7476  192.0529 C   0  0  0  0  0  0  0  0  0  0  0  0
    8.8491   21.7627  191.0745 C   0  0  0  0  0  0  0  0  0  0  0  0
    7.6895   21.9743  189.7700 Cl  0  0  0  0  0  0  0  0  0  0  0  0
    9.5722   20.5954  191.0984 C   0  0  0  0  0  0  0  0  0  0  0  0
    9.4017   19.6389  190.1527 F   0  0  0  0  0  0  0  0  0  0  0  0
   10.4802   20.4240  192.1160 C   0  0  0  0  0  0  0  0  0  0  0  0
   10.6554   21.3920  193.0758 C   0  0  0  0  0  0  0  0  0  0  0  0
 20 19  2  0
 20 21  1  0
 18 13  1  0
 18 17  2  0
 18 19  1  0
 17 16  1  0
 17 22  1  0
 22 21  2  0
 22 23  1  0
 15 14  1  0
 30 28  1  0
 30 31  2  0
 31 24  1  0
 25 24  2  0
 25 26  1  0
 13 12  2  0
 16 11  2  0
  8  7  1  0
  8  9  1  0
  9 10  1  0
  2  1  1  0
  2  3  1  0
  4  3  1  0
  4  5  1  0
  7  6  1  0
  1  6  1  0
  5  6  1  0
 28 26  2  0
 28 29  1  0
 26 27  1  0
 24 23  1  0
 12 11  1  0
 12 14  1  0
 11 10  1  0
M  CHG  1   6   1
M  END
$$$$
