
     RDKit          3D

 31 34  0  0  0  0  0  0  0  0999 V2000
   17.5556   27.9328  198.9054 C   0  0  0  0  0  0  0  0  0  0  0  0
   18.9106   28.6155  198.9485 C   0  0  0  0  0  0  0  0  0  0  0  0
   19.4313   28.7494  197.6839 O   0  0  0  0  0  0  0  0  0  0  0  0
   18.6728   28.2205  196.6714 C   0  0  0  0  0  0  0  0  0  0  0  0
   17.2288   28.6727  196.6931 C   0  0  0  0  0  0  0  0  0  0  0  0
   16.6900   28.6947  198.0340 N   0  0  0  0  0  4  0  0  0  0  0  0
   15.3691   28.1311  198.0257 C   0  0  0  0  0  0  0  0  0  0  0  0
   14.4504   28.7700  197.0110 C   0  0  0  0  0  0  0  0  0  0  0  0
   13.5187   27.6853  196.4888 C   0  0  0  0  0  0  0  0  0  0  0  0
   12.3876   28.2813  195.9359 O   0  0  0  0  0  0  0  0  0  0  0  0
   11.1709   27.6918  195.7395 C   0  0  0  0  0  0  0  0  0  0  0  0
   10.0499   28.3405  196.2124 C   0  0  0  0  0  0  0  0  0  0  0  0
    8.8062   27.7711  196.0305 C   0  0  0  0  0  0  0  0  0  0  0  0
   10.1945   29.5694  196.8706 O   0  0  0  0  0  0  0  0  0  0  0  0
    9.2036   30.5571  196.6627 C   0  0  0  0  0  0  0  0  0  0  0  0
   10.9901   26.4725  195.0902 C   0  0  0  0  0  0  0  0  0  0  0  0
    9.7434   25.9132  194.9140 C   0  0  0  0  0  0  0  0  0  0  0  0
    8.6266   26.5558  195.3832 C   0  0  0  0  0  0  0  0  0  0  0  0
    7.4066   26.0161  195.2169 N   0  0  0  0  0  0  0  0  0  0  0  0
    7.2151   24.8403  194.5945 C   0  0  0  0  0  0  0  0  0  0  0  0
    8.2937   24.2125  194.1373 N   0  0  0  0  0  0  0  0  0  0  0  0
    9.5585   24.6932  194.2664 C   0  0  0  0  0  0  0  0  0  0  0  0
   10.6634   23.9925  193.7367 N   0  0  0  0  0  0  0  0  0  0  0  0
   10.5158   23.0102  192.7322 C   0  0  0  0  0  0  0  0  0  0  0  0
    9.4155   22.9172  191.9262 C   0  0  0  0  0  0  0  0  0  0  0  0
    9.3143   21.9392  190.9299 C   0  0  0  0  0  0  0  0  0  0  0  0
    7.8936   21.8310  189.8997 Cl  0  0  0  0  0  0  0  0  0  0  0  0
   10.3210   21.0286  190.7212 C   0  0  0  0  0  0  0  0  0  0  0  0
   10.2271   20.0797  189.7573 F   0  0  0  0  0  0  0  0  0  0  0  0
   11.4342   21.1078  191.5236 C   0  0  0  0  0  0  0  0  0  0  0  0
   11.5323   22.0688  192.5013 C   0  0  0  0  0  0  0  0  0  0  0  0
 20 19  2  0
 20 21  1  0
 18 13  1  0
 18 17  2  0
 18 19  1  0
 17 16  1  0
 17 22  1  0
 22 21  2  0
 22 23  1  0
 15 14  1  0
 30 28  1  0
 30 31  2  0
 31 24  1  0
 25 24  2  0
 25 26  1  0
 13 12  2  0
 16 11  2  0
  8  7  1  0
  8  9  1  0
  9 10  1  0
  2  1  1  0
  2  3  1  0
  4  3  1  0
  4  5  1  0
  7  6  1  0
  1  6  1  0
  5  6  1  0
 28 26  2  0
 28 29  1  0
 26 27  1  0
 24 23  1  0
 12 11  1  0
 12 14  1  0
 11 10  1  0
M  CHG  1   6   1
M  END
$$$$
