
     RDKit          3D

 31 34  0  0  0  0  0  0  0  0999 V2000
   17.2075   26.1620  197.4818 C   0  0  0  0  0  0  0  0  0  0  0  0
   18.5390   26.1544  198.2106 C   0  0  0  0  0  0  0  0  0  0  0  0
   19.5843   26.2001  197.3200 O   0  0  0  0  0  0  0  0  0  0  0  0
   19.2341   26.1996  195.9942 C   0  0  0  0  0  0  0  0  0  0  0  0
   18.1978   27.2434  195.6384 C   0  0  0  0  0  0  0  0  0  0  0  0
   17.1577   27.3343  196.6378 N   0  0  0  0  0  4  0  0  0  0  0  0
   15.8802   27.4275  195.9882 C   0  0  0  0  0  0  0  0  0  0  0  0
   14.8557   28.1985  196.7869 C   0  0  0  0  0  0  0  0  0  0  0  0
   13.5844   27.3624  196.8307 C   0  0  0  0  0  0  0  0  0  0  0  0
   12.6198   27.9540  196.0183 O   0  0  0  0  0  0  0  0  0  0  0  0
   11.3490   27.5014  195.8025 C   0  0  0  0  0  0  0  0  0  0  0  0
   10.3011   28.2352  196.3169 C   0  0  0  0  0  0  0  0  0  0  0  0
    9.0055   27.8046  196.1168 C   0  0  0  0  0  0  0  0  0  0  0  0
   10.5717   29.4078  197.0353 O   0  0  0  0  0  0  0  0  0  0  0  0
    9.5715   30.4070  197.0806 C   0  0  0  0  0  0  0  0  0  0  0  0
   11.0433   26.3416  195.0938 C   0  0  0  0  0  0  0  0  0  0  0  0
    9.7458   25.9211  194.8999 C   0  0  0  0  0  0  0  0  0  0  0  0
    8.7014   26.6484  195.4102 C   0  0  0  0  0  0  0  0  0  0  0  0
    7.4325   26.2441  195.2270 N   0  0  0  0  0  0  0  0  0  0  0  0
    7.1207   25.1272  194.5475 C   0  0  0  0  0  0  0  0  0  0  0  0
    8.1286   24.4178  194.0501 N   0  0  0  0  0  0  0  0  0  0  0  0
    9.4361   24.7608  194.1929 C   0  0  0  0  0  0  0  0  0  0  0  0
   10.4625   23.9800  193.6192 N   0  0  0  0  0  0  0  0  0  0  0  0
   10.1913   22.9566  192.6839 C   0  0  0  0  0  0  0  0  0  0  0  0
    9.3754   23.1244  191.5999 C   0  0  0  0  0  0  0  0  0  0  0  0
    9.1451   22.0899  190.6856 C   0  0  0  0  0  0  0  0  0  0  0  0
    8.0935   22.3193  189.2953 Cl  0  0  0  0  0  0  0  0  0  0  0  0
    9.7319   20.8580  190.8416 C   0  0  0  0  0  0  0  0  0  0  0  0
    9.5116   19.8532  189.9584 F   0  0  0  0  0  0  0  0  0  0  0  0
   10.5549   20.6723  191.9268 C   0  0  0  0  0  0  0  0  0  0  0  0
   10.7804   21.6892  192.8236 C   0  0  0  0  0  0  0  0  0  0  0  0
 20 19  2  0
 20 21  1  0
 18 13  1  0
 18 17  2  0
 18 19  1  0
 17 16  1  0
 17 22  1  0
 22 21  2  0
 22 23  1  0
 15 14  1  0
 30 28  1  0
 30 31  2  0
 31 24  1  0
 25 24  2  0
 25 26  1  0
 13 12  2  0
 16 11  2  0
  8  7  1  0
  8  9  1  0
  9 10  1  0
  2  1  1  0
  2  3  1  0
  4  3  1  0
  4  5  1  0
  7  6  1  0
  1  6  1  0
  5  6  1  0
 28 26  2  0
 28 29  1  0
 26 27  1  0
 24 23  1  0
 12 11  1  0
 12 14  1  0
 11 10  1  0
M  CHG  1   6   1
M  END
$$$$
