
     RDKit          3D

 31 34  0  0  0  0  0  0  0  0999 V2000
   17.0385   30.0035  196.2066 C   0  0  0  0  0  0  0  0  0  0  0  0
   18.5135   30.2413  196.4747 C   0  0  0  0  0  0  0  0  0  0  0  0
   18.7018   30.7926  197.7191 O   0  0  0  0  0  0  0  0  0  0  0  0
   17.5594   31.0511  198.4321 C   0  0  0  0  0  0  0  0  0  0  0  0
   16.6171   29.8703  198.5203 C   0  0  0  0  0  0  0  0  0  0  0  0
   16.5136   29.1669  197.2619 N   0  0  0  0  0  4  0  0  0  0  0  0
   15.1368   28.8472  197.0071 C   0  0  0  0  0  0  0  0  0  0  0  0
   14.9416   27.9454  195.8111 C   0  0  0  0  0  0  0  0  0  0  0  0
   13.7123   27.0884  196.0787 C   0  0  0  0  0  0  0  0  0  0  0  0
   12.5672   27.8349  195.8108 O   0  0  0  0  0  0  0  0  0  0  0  0
   11.3091   27.3469  195.5976 C   0  0  0  0  0  0  0  0  0  0  0  0
   10.2383   28.0904  196.0467 C   0  0  0  0  0  0  0  0  0  0  0  0
    8.9547   27.6248  195.8474 C   0  0  0  0  0  0  0  0  0  0  0  0
   10.4737   29.3083  196.6991 O   0  0  0  0  0  0  0  0  0  0  0  0
    9.3557   30.0833  197.0867 C   0  0  0  0  0  0  0  0  0  0  0  0
   11.0383   26.1416  194.9534 C   0  0  0  0  0  0  0  0  0  0  0  0
    9.7525   25.6864  194.7597 C   0  0  0  0  0  0  0  0  0  0  0  0
    8.6854   26.4232  195.2052 C   0  0  0  0  0  0  0  0  0  0  0  0
    7.4276   25.9854  195.0217 N   0  0  0  0  0  0  0  0  0  0  0  0
    7.1494   24.8246  194.4040 C   0  0  0  0  0  0  0  0  0  0  0  0
    8.1794   24.1057  193.9697 N   0  0  0  0  0  0  0  0  0  0  0  0
    9.4775   24.4807  194.1172 C   0  0  0  0  0  0  0  0  0  0  0  0
   10.5289   23.6864  193.6113 N   0  0  0  0  0  0  0  0  0  0  0  0
   10.3059   22.6656  192.6606 C   0  0  0  0  0  0  0  0  0  0  0  0
    9.3955   22.7679  191.6458 C   0  0  0  0  0  0  0  0  0  0  0  0
    9.2158   21.7402  190.7127 C   0  0  0  0  0  0  0  0  0  0  0  0
    8.0417   21.8849  189.4120 Cl  0  0  0  0  0  0  0  0  0  0  0  0
    9.9499   20.5814  190.7795 C   0  0  0  0  0  0  0  0  0  0  0  0
    9.7791   19.5835  189.8777 F   0  0  0  0  0  0  0  0  0  0  0  0
   10.8694   20.4621  191.7944 C   0  0  0  0  0  0  0  0  0  0  0  0
   11.0449   21.4722  192.7097 C   0  0  0  0  0  0  0  0  0  0  0  0
 20 19  2  0
 20 21  1  0
 18 13  1  0
 18 17  2  0
 18 19  1  0
 17 16  1  0
 17 22  1  0
 22 21  2  0
 22 23  1  0
 15 14  1  0
 30 28  1  0
 30 31  2  0
 31 24  1  0
 25 24  2  0
 25 26  1  0
 13 12  2  0
 16 11  2  0
  8  7  1  0
  8  9  1  0
  9 10  1  0
  2  1  1  0
  2  3  1  0
  4  3  1  0
  4  5  1  0
  7  6  1  0
  1  6  1  0
  5  6  1  0
 28 26  2  0
 28 29  1  0
 26 27  1  0
 24 23  1  0
 12 11  1  0
 12 14  1  0
 11 10  1  0
M  CHG  1   6   1
M  END
$$$$
