
     RDKit          3D

 31 34  0  0  0  0  0  0  0  0999 V2000
   17.4445   28.8981  197.2122 C   0  0  0  0  0  0  0  0  0  0  0  0
   18.3566   29.9534  197.8109 C   0  0  0  0  0  0  0  0  0  0  0  0
   17.6274   31.0127  198.2947 O   0  0  0  0  0  0  0  0  0  0  0  0
   16.2711   30.9325  198.1097 C   0  0  0  0  0  0  0  0  0  0  0  0
   15.6693   29.6257  198.5789 C   0  0  0  0  0  0  0  0  0  0  0  0
   16.4933   28.4931  198.2223 N   0  0  0  0  0  4  0  0  0  0  0  0
   15.6588   27.4348  197.7261 C   0  0  0  0  0  0  0  0  0  0  0  0
   14.6775   27.8887  196.6712 C   0  0  0  0  0  0  0  0  0  0  0  0
   13.3270   27.2704  197.0046 C   0  0  0  0  0  0  0  0  0  0  0  0
   12.3313   27.9354  196.2930 O   0  0  0  0  0  0  0  0  0  0  0  0
   11.0941   27.4496  195.9775 C   0  0  0  0  0  0  0  0  0  0  0  0
    9.9939   28.2206  196.2880 C   0  0  0  0  0  0  0  0  0  0  0  0
    8.7302   27.7579  195.9829 C   0  0  0  0  0  0  0  0  0  0  0  0
   10.1797   29.4630  196.9094 O   0  0  0  0  0  0  0  0  0  0  0  0
    9.0329   30.2301  197.2209 C   0  0  0  0  0  0  0  0  0  0  0  0
   10.8723   26.2205  195.3601 C   0  0  0  0  0  0  0  0  0  0  0  0
    9.6060   25.7685  195.0599 C   0  0  0  0  0  0  0  0  0  0  0  0
    8.5098   26.5326  195.3675 C   0  0  0  0  0  0  0  0  0  0  0  0
    7.2706   26.0982  195.0795 N   0  0  0  0  0  0  0  0  0  0  0  0
    7.0394   24.9147  194.4860 C   0  0  0  0  0  0  0  0  0  0  0  0
    8.0979   24.1692  194.1851 N   0  0  0  0  0  0  0  0  0  0  0  0
    9.3799   24.5391  194.4439 C   0  0  0  0  0  0  0  0  0  0  0  0
   10.4656   23.7150  194.0770 N   0  0  0  0  0  0  0  0  0  0  0  0
   10.3685   22.7690  193.0324 C   0  0  0  0  0  0  0  0  0  0  0  0
    9.3953   22.8043  192.0730 C   0  0  0  0  0  0  0  0  0  0  0  0
    9.3430   21.8575  191.0433 C   0  0  0  0  0  0  0  0  0  0  0  0
    8.0859   21.9147  189.8154 Cl  0  0  0  0  0  0  0  0  0  0  0  0
   10.2716   20.8495  190.9551 C   0  0  0  0  0  0  0  0  0  0  0  0
   10.2248   19.9305  189.9594 F   0  0  0  0  0  0  0  0  0  0  0  0
   11.2569   20.7993  191.9123 C   0  0  0  0  0  0  0  0  0  0  0  0
   11.3071   21.7298  192.9226 C   0  0  0  0  0  0  0  0  0  0  0  0
 20 19  2  0
 20 21  1  0
 18 13  1  0
 18 17  2  0
 18 19  1  0
 17 16  1  0
 17 22  1  0
 22 21  2  0
 22 23  1  0
 15 14  1  0
 30 28  1  0
 30 31  2  0
 31 24  1  0
 25 24  2  0
 25 26  1  0
 13 12  2  0
 16 11  2  0
  8  7  1  0
  8  9  1  0
  9 10  1  0
  2  1  1  0
  2  3  1  0
  4  3  1  0
  4  5  1  0
  7  6  1  0
  1  6  1  0
  5  6  1  0
 28 26  2  0
 28 29  1  0
 26 27  1  0
 24 23  1  0
 12 11  1  0
 12 14  1  0
 11 10  1  0
M  CHG  1   6   1
M  END
$$$$
