
     RDKit          3D

 31 34  0  0  0  0  0  0  0  0999 V2000
   18.0901   28.3604  195.9142 C   0  0  0  0  0  0  0  0  0  0  0  0
   19.3846   28.3745  196.7066 C   0  0  0  0  0  0  0  0  0  0  0  0
   19.3546   29.3487  197.6752 O   0  0  0  0  0  0  0  0  0  0  0  0
   18.2201   30.1183  197.7071 C   0  0  0  0  0  0  0  0  0  0  0  0
   16.9393   29.3129  197.7354 C   0  0  0  0  0  0  0  0  0  0  0  0
   16.9932   28.1811  196.8382 N   0  0  0  0  0  4  0  0  0  0  0  0
   15.7510   28.0799  196.1244 C   0  0  0  0  0  0  0  0  0  0  0  0
   14.5483   27.9472  197.0287 C   0  0  0  0  0  0  0  0  0  0  0  0
   13.5200   27.0921  196.3016 C   0  0  0  0  0  0  0  0  0  0  0  0
   12.3730   27.8494  196.0757 O   0  0  0  0  0  0  0  0  0  0  0  0
   11.1121   27.3711  195.8572 C   0  0  0  0  0  0  0  0  0  0  0  0
   10.0451   28.1225  196.3024 C   0  0  0  0  0  0  0  0  0  0  0  0
    8.7589   27.6668  196.0977 C   0  0  0  0  0  0  0  0  0  0  0  0
   10.2872   29.3382  196.9564 O   0  0  0  0  0  0  0  0  0  0  0  0
    9.1733   30.1149  197.3523 C   0  0  0  0  0  0  0  0  0  0  0  0
   10.8346   26.1682  195.2112 C   0  0  0  0  0  0  0  0  0  0  0  0
    9.5462   25.7230  195.0121 C   0  0  0  0  0  0  0  0  0  0  0  0
    8.4830   26.4677  195.4538 C   0  0  0  0  0  0  0  0  0  0  0  0
    7.2227   26.0395  195.2650 N   0  0  0  0  0  0  0  0  0  0  0  0
    6.9380   24.8812  194.6455 C   0  0  0  0  0  0  0  0  0  0  0  0
    7.9643   24.1547  194.2149 N   0  0  0  0  0  0  0  0  0  0  0  0
    9.2646   24.5198  194.3679 C   0  0  0  0  0  0  0  0  0  0  0  0
   10.3120   23.7177  193.8657 N   0  0  0  0  0  0  0  0  0  0  0  0
   10.0707   22.6210  193.0085 C   0  0  0  0  0  0  0  0  0  0  0  0
    9.1964   22.6644  191.9585 C   0  0  0  0  0  0  0  0  0  0  0  0
    8.9975   21.5606  191.1210 C   0  0  0  0  0  0  0  0  0  0  0  0
    7.8701   21.6301  189.7736 Cl  0  0  0  0  0  0  0  0  0  0  0  0
    9.6757   20.3833  191.3216 C   0  0  0  0  0  0  0  0  0  0  0  0
    9.4862   19.3118  190.5128 F   0  0  0  0  0  0  0  0  0  0  0  0
   10.5584   20.3227  192.3736 C   0  0  0  0  0  0  0  0  0  0  0  0
   10.7528   21.4074  193.1949 C   0  0  0  0  0  0  0  0  0  0  0  0
 20 19  2  0
 20 21  1  0
 18 13  1  0
 18 17  2  0
 18 19  1  0
 17 16  1  0
 17 22  1  0
 22 21  2  0
 22 23  1  0
 15 14  1  0
 30 28  1  0
 30 31  2  0
 31 24  1  0
 25 24  2  0
 25 26  1  0
 13 12  2  0
 16 11  2  0
  8  7  1  0
  8  9  1  0
  9 10  1  0
  2  1  1  0
  2  3  1  0
  4  3  1  0
  4  5  1  0
  7  6  1  0
  1  6  1  0
  5  6  1  0
 28 26  2  0
 28 29  1  0
 26 27  1  0
 24 23  1  0
 12 11  1  0
 12 14  1  0
 11 10  1  0
M  CHG  1   6   1
M  END
$$$$
