
     RDKit          3D

 31 34  0  0  0  0  0  0  0  0999 V2000
   18.0919   28.6219  195.8178 C   0  0  0  0  0  0  0  0  0  0  0  0
   19.4874   28.5261  196.4071 C   0  0  0  0  0  0  0  0  0  0  0  0
   19.4499   28.6452  197.7755 O   0  0  0  0  0  0  0  0  0  0  0  0
   18.2094   28.8630  198.3178 C   0  0  0  0  0  0  0  0  0  0  0  0
   17.1594   27.8791  197.8494 C   0  0  0  0  0  0  0  0  0  0  0  0
   17.2674   27.6072  196.4340 N   0  0  0  0  0  4  0  0  0  0  0  0
   15.9562   27.6060  195.8480 C   0  0  0  0  0  0  0  0  0  0  0  0
   14.8563   27.9097  196.8378 C   0  0  0  0  0  0  0  0  0  0  0  0
   13.6790   27.0029  196.5077 C   0  0  0  0  0  0  0  0  0  0  0  0
   12.5261   27.7753  196.3886 O   0  0  0  0  0  0  0  0  0  0  0  0
   11.2727   27.3250  196.0840 C   0  0  0  0  0  0  0  0  0  0  0  0
   10.1925   28.0585  196.5270 C   0  0  0  0  0  0  0  0  0  0  0  0
    8.9134   27.6300  196.2365 C   0  0  0  0  0  0  0  0  0  0  0  0
   10.4139   29.2286  197.2660 O   0  0  0  0  0  0  0  0  0  0  0  0
    9.3464   30.1476  197.3941 C   0  0  0  0  0  0  0  0  0  0  0  0
   11.0156   26.1676  195.3522 C   0  0  0  0  0  0  0  0  0  0  0  0
    9.7342   25.7493  195.0679 C   0  0  0  0  0  0  0  0  0  0  0  0
    8.6578   26.4763  195.5070 C   0  0  0  0  0  0  0  0  0  0  0  0
    7.4041   26.0741  195.2353 N   0  0  0  0  0  0  0  0  0  0  0  0
    7.1390   24.9596  194.5324 C   0  0  0  0  0  0  0  0  0  0  0  0
    8.1781   24.2505  194.1037 N   0  0  0  0  0  0  0  0  0  0  0  0
    9.4729   24.5915  194.3376 C   0  0  0  0  0  0  0  0  0  0  0  0
   10.5357   23.8111  193.8338 N   0  0  0  0  0  0  0  0  0  0  0  0
   10.3256   22.7742  192.8977 C   0  0  0  0  0  0  0  0  0  0  0  0
    9.4325   22.8609  191.8662 C   0  0  0  0  0  0  0  0  0  0  0  0
    9.2653   21.8173  190.9486 C   0  0  0  0  0  0  0  0  0  0  0  0
    8.1133   21.9419  189.6262 Cl  0  0  0  0  0  0  0  0  0  0  0  0
    9.9949   20.6580  191.0481 C   0  0  0  0  0  0  0  0  0  0  0  0
    9.8362   19.6447  190.1613 F   0  0  0  0  0  0  0  0  0  0  0  0
   10.8971   20.5543  192.0800 C   0  0  0  0  0  0  0  0  0  0  0  0
   11.0604   21.5800  192.9801 C   0  0  0  0  0  0  0  0  0  0  0  0
 20 19  2  0
 20 21  1  0
 18 13  1  0
 18 17  2  0
 18 19  1  0
 17 16  1  0
 17 22  1  0
 22 21  2  0
 22 23  1  0
 15 14  1  0
 30 28  1  0
 30 31  2  0
 31 24  1  0
 25 24  2  0
 25 26  1  0
 13 12  2  0
 16 11  2  0
  8  7  1  0
  8  9  1  0
  9 10  1  0
  2  1  1  0
  2  3  1  0
  4  3  1  0
  4  5  1  0
  7  6  1  0
  1  6  1  0
  5  6  1  0
 28 26  2  0
 28 29  1  0
 26 27  1  0
 24 23  1  0
 12 11  1  0
 12 14  1  0
 11 10  1  0
M  CHG  1   6   1
M  END
$$$$
