
     RDKit          3D

 31 34  0  0  0  0  0  0  0  0999 V2000
   16.9856   28.3570  198.6620 C   0  0  0  0  0  0  0  0  0  0  0  0
   18.2234   29.0302  199.2266 C   0  0  0  0  0  0  0  0  0  0  0  0
   19.3640   28.4994  198.6741 O   0  0  0  0  0  0  0  0  0  0  0  0
   19.1701   27.4731  197.7856 C   0  0  0  0  0  0  0  0  0  0  0  0
   18.1621   27.7887  196.7020 C   0  0  0  0  0  0  0  0  0  0  0  0
   17.0114   28.4910  197.2231 N   0  0  0  0  0  4  0  0  0  0  0  0
   15.8163   27.9387  196.6491 C   0  0  0  0  0  0  0  0  0  0  0  0
   14.5582   28.6584  197.0742 C   0  0  0  0  0  0  0  0  0  0  0  0
   13.3965   28.0444  196.3055 C   0  0  0  0  0  0  0  0  0  0  0  0
   12.2634   28.0404  197.1156 O   0  0  0  0  0  0  0  0  0  0  0  0
   11.0176   27.5990  196.7698 C   0  0  0  0  0  0  0  0  0  0  0  0
    9.9273   28.3232  197.2035 C   0  0  0  0  0  0  0  0  0  0  0  0
    8.6554   27.9034  196.8716 C   0  0  0  0  0  0  0  0  0  0  0  0
   10.1314   29.4751  197.9753 O   0  0  0  0  0  0  0  0  0  0  0  0
    9.0424   29.9749  198.7269 C   0  0  0  0  0  0  0  0  0  0  0  0
   10.7777   26.4597  196.0046 C   0  0  0  0  0  0  0  0  0  0  0  0
    9.5033   26.0499  195.6790 C   0  0  0  0  0  0  0  0  0  0  0  0
    8.4170   26.7677  196.1088 C   0  0  0  0  0  0  0  0  0  0  0  0
    7.1700   26.3737  195.7970 N   0  0  0  0  0  0  0  0  0  0  0  0
    6.9214   25.2766  195.0614 C   0  0  0  0  0  0  0  0  0  0  0  0
    7.9703   24.5765  194.6416 N   0  0  0  0  0  0  0  0  0  0  0  0
    9.2592   24.9102  194.9152 C   0  0  0  0  0  0  0  0  0  0  0  0
   10.3335   24.1406  194.4192 N   0  0  0  0  0  0  0  0  0  0  0  0
   10.1281   23.0053  193.6040 C   0  0  0  0  0  0  0  0  0  0  0  0
    8.8896   22.5359  193.2653 C   0  0  0  0  0  0  0  0  0  0  0  0
    8.7276   21.4166  192.4405 C   0  0  0  0  0  0  0  0  0  0  0  0
    7.1288   20.8237  192.0122 Cl  0  0  0  0  0  0  0  0  0  0  0  0
    9.8117   20.7410  191.9361 C   0  0  0  0  0  0  0  0  0  0  0  0
    9.6594   19.6565  191.1368 F   0  0  0  0  0  0  0  0  0  0  0  0
   11.0645   21.1996  192.2676 C   0  0  0  0  0  0  0  0  0  0  0  0
   11.2220   22.2989  193.0774 C   0  0  0  0  0  0  0  0  0  0  0  0
 20 19  2  0
 20 21  1  0
 18 13  1  0
 18 17  2  0
 18 19  1  0
 17 16  1  0
 17 22  1  0
 22 21  2  0
 22 23  1  0
 15 14  1  0
 30 28  1  0
 30 31  2  0
 31 24  1  0
 25 24  2  0
 25 26  1  0
 13 12  2  0
 16 11  2  0
  8  7  1  0
  8  9  1  0
  9 10  1  0
  2  1  1  0
  2  3  1  0
  4  3  1  0
  4  5  1  0
  7  6  1  0
  1  6  1  0
  5  6  1  0
 28 26  2  0
 28 29  1  0
 26 27  1  0
 24 23  1  0
 12 11  1  0
 12 14  1  0
 11 10  1  0
M  CHG  1   6   1
M  END
$$$$
