
     RDKit          3D

 31 34  0  0  0  0  0  0  0  0999 V2000
   17.2545   27.8353  196.3558 C   0  0  0  0  0  0  0  0  0  0  0  0
   18.7191   28.2210  196.4570 C   0  0  0  0  0  0  0  0  0  0  0  0
   18.8552   29.5085  196.9174 O   0  0  0  0  0  0  0  0  0  0  0  0
   17.6837   30.1834  197.1456 C   0  0  0  0  0  0  0  0  0  0  0  0
   16.7003   29.4211  198.0070 C   0  0  0  0  0  0  0  0  0  0  0  0
   16.6448   28.0210  197.6530 N   0  0  0  0  0  4  0  0  0  0  0  0
   15.2748   27.5906  197.6266 C   0  0  0  0  0  0  0  0  0  0  0  0
   14.3776   28.4940  196.8138 C   0  0  0  0  0  0  0  0  0  0  0  0
   13.4417   27.6051  196.0066 C   0  0  0  0  0  0  0  0  0  0  0  0
   12.2358   28.2730  195.8069 O   0  0  0  0  0  0  0  0  0  0  0  0
   11.0161   27.7003  195.5817 C   0  0  0  0  0  0  0  0  0  0  0  0
    9.8938   28.3601  196.0361 C   0  0  0  0  0  0  0  0  0  0  0  0
    8.6471   27.8077  195.8250 C   0  0  0  0  0  0  0  0  0  0  0  0
   10.0404   29.5825  196.7058 O   0  0  0  0  0  0  0  0  0  0  0  0
    8.9116   30.1184  197.3687 C   0  0  0  0  0  0  0  0  0  0  0  0
   10.8332   26.4879  194.9202 C   0  0  0  0  0  0  0  0  0  0  0  0
    9.5835   25.9457  194.7148 C   0  0  0  0  0  0  0  0  0  0  0  0
    8.4655   26.5991  195.1656 C   0  0  0  0  0  0  0  0  0  0  0  0
    7.2425   26.0761  194.9708 N   0  0  0  0  0  0  0  0  0  0  0  0
    7.0490   24.9071  194.3364 C   0  0  0  0  0  0  0  0  0  0  0  0
    8.1288   24.2688  193.8969 N   0  0  0  0  0  0  0  0  0  0  0  0
    9.3966   24.7325  194.0551 C   0  0  0  0  0  0  0  0  0  0  0  0
   10.5032   24.0214  193.5430 N   0  0  0  0  0  0  0  0  0  0  0  0
   10.3541   22.9863  192.5933 C   0  0  0  0  0  0  0  0  0  0  0  0
    9.4854   23.0509  191.5396 C   0  0  0  0  0  0  0  0  0  0  0  0
    9.3791   22.0104  190.6094 C   0  0  0  0  0  0  0  0  0  0  0  0
    8.2579   22.1064  189.2585 Cl  0  0  0  0  0  0  0  0  0  0  0  0
   10.1465   20.8767  190.7184 C   0  0  0  0  0  0  0  0  0  0  0  0
   10.0467   19.8665  189.8196 F   0  0  0  0  0  0  0  0  0  0  0  0
   11.0249   20.7955  191.7727 C   0  0  0  0  0  0  0  0  0  0  0  0
   11.1284   21.8180  192.6851 C   0  0  0  0  0  0  0  0  0  0  0  0
 20 19  2  0
 20 21  1  0
 18 13  1  0
 18 17  2  0
 18 19  1  0
 17 16  1  0
 17 22  1  0
 22 21  2  0
 22 23  1  0
 15 14  1  0
 30 28  1  0
 30 31  2  0
 31 24  1  0
 25 24  2  0
 25 26  1  0
 13 12  2  0
 16 11  2  0
  8  7  1  0
  8  9  1  0
  9 10  1  0
  2  1  1  0
  2  3  1  0
  4  3  1  0
  4  5  1  0
  7  6  1  0
  1  6  1  0
  5  6  1  0
 28 26  2  0
 28 29  1  0
 26 27  1  0
 24 23  1  0
 12 11  1  0
 12 14  1  0
 11 10  1  0
M  CHG  1   6   1
M  END
$$$$
