
     RDKit          3D

 31 34  0  0  0  0  0  0  0  0999 V2000
   17.3879   29.4751  196.1810 C   0  0  0  0  0  0  0  0  0  0  0  0
   18.8739   29.4370  196.4885 C   0  0  0  0  0  0  0  0  0  0  0  0
   19.1255   29.9266  197.7475 O   0  0  0  0  0  0  0  0  0  0  0  0
   18.0302   30.3778  198.4380 C   0  0  0  0  0  0  0  0  0  0  0  0
   16.8875   29.3866  198.4811 C   0  0  0  0  0  0  0  0  0  0  0  0
   16.6920   28.7323  197.2072 N   0  0  0  0  0  4  0  0  0  0  0  0
   15.2874   28.6718  196.9137 C   0  0  0  0  0  0  0  0  0  0  0  0
   14.9642   27.8391  195.6956 C   0  0  0  0  0  0  0  0  0  0  0  0
   13.7607   26.9723  196.0387 C   0  0  0  0  0  0  0  0  0  0  0  0
   12.6109   27.7583  196.0200 O   0  0  0  0  0  0  0  0  0  0  0  0
   11.3376   27.3316  195.7691 C   0  0  0  0  0  0  0  0  0  0  0  0
   10.2909   28.1167  196.2041 C   0  0  0  0  0  0  0  0  0  0  0  0
    8.9928   27.7133  195.9668 C   0  0  0  0  0  0  0  0  0  0  0  0
   10.5652   29.3130  196.8808 O   0  0  0  0  0  0  0  0  0  0  0  0
    9.4728   30.1165  197.2827 C   0  0  0  0  0  0  0  0  0  0  0  0
   11.0282   26.1494  195.0999 C   0  0  0  0  0  0  0  0  0  0  0  0
    9.7283   25.7565  194.8683 C   0  0  0  0  0  0  0  0  0  0  0  0
    8.6851   26.5348  195.2997 C   0  0  0  0  0  0  0  0  0  0  0  0
    7.4136   26.1578  195.0793 N   0  0  0  0  0  0  0  0  0  0  0  0
    7.0982   25.0200  194.4370 C   0  0  0  0  0  0  0  0  0  0  0  0
    8.1049   24.2611  194.0163 N   0  0  0  0  0  0  0  0  0  0  0  0
    9.4147   24.5741  194.2007 C   0  0  0  0  0  0  0  0  0  0  0  0
   10.4411   23.7399  193.7077 N   0  0  0  0  0  0  0  0  0  0  0  0
   10.2002   22.7607  192.7183 C   0  0  0  0  0  0  0  0  0  0  0  0
    9.2704   22.9055  191.7266 C   0  0  0  0  0  0  0  0  0  0  0  0
    9.0732   21.9187  190.7537 C   0  0  0  0  0  0  0  0  0  0  0  0
    7.8741   22.1178  189.4833 Cl  0  0  0  0  0  0  0  0  0  0  0  0
    9.8090   20.7591  190.7564 C   0  0  0  0  0  0  0  0  0  0  0  0
    9.6213   19.8007  189.8159 F   0  0  0  0  0  0  0  0  0  0  0  0
   10.7479   20.5973  191.7472 C   0  0  0  0  0  0  0  0  0  0  0  0
   10.9406   21.5673  192.7017 C   0  0  0  0  0  0  0  0  0  0  0  0
 20 19  2  0
 20 21  1  0
 18 13  1  0
 18 17  2  0
 18 19  1  0
 17 16  1  0
 17 22  1  0
 22 21  2  0
 22 23  1  0
 15 14  1  0
 30 28  1  0
 30 31  2  0
 31 24  1  0
 25 24  2  0
 25 26  1  0
 13 12  2  0
 16 11  2  0
  8  7  1  0
  8  9  1  0
  9 10  1  0
  2  1  1  0
  2  3  1  0
  4  3  1  0
  4  5  1  0
  7  6  1  0
  1  6  1  0
  5  6  1  0
 28 26  2  0
 28 29  1  0
 26 27  1  0
 24 23  1  0
 12 11  1  0
 12 14  1  0
 11 10  1  0
M  CHG  1   6   1
M  END
$$$$
