
     RDKit          3D

 31 34  0  0  0  0  0  0  0  0999 V2000
   17.8574   27.5372  196.5555 C   0  0  0  0  0  0  0  0  0  0  0  0
   18.9624   26.7485  197.2342 C   0  0  0  0  0  0  0  0  0  0  0  0
   19.3111   27.3258  198.4314 O   0  0  0  0  0  0  0  0  0  0  0  0
   18.6475   28.4836  198.7468 C   0  0  0  0  0  0  0  0  0  0  0  0
   17.1422   28.3705  198.6394 C   0  0  0  0  0  0  0  0  0  0  0  0
   16.7388   27.6290  197.4662 N   0  0  0  0  0  4  0  0  0  0  0  0
   15.6357   28.2987  196.8358 C   0  0  0  0  0  0  0  0  0  0  0  0
   14.6298   27.3525  196.2236 C   0  0  0  0  0  0  0  0  0  0  0  0
   13.2976   27.5843  196.9227 C   0  0  0  0  0  0  0  0  0  0  0  0
   12.3751   28.0705  195.9993 O   0  0  0  0  0  0  0  0  0  0  0  0
   11.1317   27.5637  195.7473 C   0  0  0  0  0  0  0  0  0  0  0  0
   10.0366   28.2861  196.1716 C   0  0  0  0  0  0  0  0  0  0  0  0
    8.7670   27.8012  195.9329 C   0  0  0  0  0  0  0  0  0  0  0  0
   10.2335   29.5027  196.8391 O   0  0  0  0  0  0  0  0  0  0  0  0
    9.1733   30.4390  196.8439 C   0  0  0  0  0  0  0  0  0  0  0  0
   10.8989   26.3592  195.0871 C   0  0  0  0  0  0  0  0  0  0  0  0
    9.6267   25.8846  194.8540 C   0  0  0  0  0  0  0  0  0  0  0  0
    8.5356   26.6005  195.2747 C   0  0  0  0  0  0  0  0  0  0  0  0
    7.2908   26.1436  195.0528 N   0  0  0  0  0  0  0  0  0  0  0  0
    7.0491   24.9832  194.4191 C   0  0  0  0  0  0  0  0  0  0  0  0
    8.1027   24.2846  194.0086 N   0  0  0  0  0  0  0  0  0  0  0  0
    9.3898   24.6796  194.1953 C   0  0  0  0  0  0  0  0  0  0  0  0
   10.4679   23.9065  193.7133 N   0  0  0  0  0  0  0  0  0  0  0  0
   10.2774   22.8344  192.8133 C   0  0  0  0  0  0  0  0  0  0  0  0
    9.1102   22.6193  192.1349 C   0  0  0  0  0  0  0  0  0  0  0  0
    8.9664   21.5545  191.2379 C   0  0  0  0  0  0  0  0  0  0  0  0
    7.4595   21.2895  190.3716 Cl  0  0  0  0  0  0  0  0  0  0  0  0
    9.9970   20.6779  191.0022 C   0  0  0  0  0  0  0  0  0  0  0  0
    9.8621   19.6453  190.1341 F   0  0  0  0  0  0  0  0  0  0  0  0
   11.1777   20.8796  191.6767 C   0  0  0  0  0  0  0  0  0  0  0  0
   11.3175   21.9258  192.5570 C   0  0  0  0  0  0  0  0  0  0  0  0
 20 19  2  0
 20 21  1  0
 18 13  1  0
 18 17  2  0
 18 19  1  0
 17 16  1  0
 17 22  1  0
 22 21  2  0
 22 23  1  0
 15 14  1  0
 30 28  1  0
 30 31  2  0
 31 24  1  0
 25 24  2  0
 25 26  1  0
 13 12  2  0
 16 11  2  0
  8  7  1  0
  8  9  1  0
  9 10  1  0
  2  1  1  0
  2  3  1  0
  4  3  1  0
  4  5  1  0
  7  6  1  0
  1  6  1  0
  5  6  1  0
 28 26  2  0
 28 29  1  0
 26 27  1  0
 24 23  1  0
 12 11  1  0
 12 14  1  0
 11 10  1  0
M  CHG  1   6   1
M  END
$$$$
