
     RDKit          3D

 31 34  0  0  0  0  0  0  0  0999 V2000
   16.9558   30.3065  196.4133 C   0  0  0  0  0  0  0  0  0  0  0  0
   18.4519   30.1763  196.1919 C   0  0  0  0  0  0  0  0  0  0  0  0
   19.0565   29.5819  197.2732 O   0  0  0  0  0  0  0  0  0  0  0  0
   18.2271   29.2734  198.3208 C   0  0  0  0  0  0  0  0  0  0  0  0
   16.9977   28.4907  197.9132 C   0  0  0  0  0  0  0  0  0  0  0  0
   16.4205   28.9920  196.6867 N   0  0  0  0  0  4  0  0  0  0  0  0
   14.9921   29.0534  196.8230 C   0  0  0  0  0  0  0  0  0  0  0  0
   14.2509   28.5007  195.6285 C   0  0  0  0  0  0  0  0  0  0  0  0
   13.5900   27.1993  196.0608 C   0  0  0  0  0  0  0  0  0  0  0  0
   12.3511   27.4830  196.6308 O   0  0  0  0  0  0  0  0  0  0  0  0
   11.1276   27.1313  196.1349 C   0  0  0  0  0  0  0  0  0  0  0  0
   10.0637   27.9767  196.3683 C   0  0  0  0  0  0  0  0  0  0  0  0
    8.8147   27.6498  195.8813 C   0  0  0  0  0  0  0  0  0  0  0  0
   10.2708   29.1554  197.0979 O   0  0  0  0  0  0  0  0  0  0  0  0
    9.2732   29.5529  198.0184 C   0  0  0  0  0  0  0  0  0  0  0  0
   10.8856   25.9688  195.4061 C   0  0  0  0  0  0  0  0  0  0  0  0
    9.6343   25.6525  194.9243 C   0  0  0  0  0  0  0  0  0  0  0  0
    8.5741   26.4909  195.1549 C   0  0  0  0  0  0  0  0  0  0  0  0
    7.3494   26.1888  194.6898 N   0  0  0  0  0  0  0  0  0  0  0  0
    7.0988   25.0710  193.9868 C   0  0  0  0  0  0  0  0  0  0  0  0
    8.1224   24.2541  193.7598 N   0  0  0  0  0  0  0  0  0  0  0  0
    9.3878   24.4901  194.1964 C   0  0  0  0  0  0  0  0  0  0  0  0
   10.4402   23.5968  193.9015 N   0  0  0  0  0  0  0  0  0  0  0  0
   10.3204   22.6000  192.9076 C   0  0  0  0  0  0  0  0  0  0  0  0
    9.5279   22.7314  191.8014 C   0  0  0  0  0  0  0  0  0  0  0  0
    9.4492   21.7270  190.8297 C   0  0  0  0  0  0  0  0  0  0  0  0
    8.4261   21.9090  189.4114 Cl  0  0  0  0  0  0  0  0  0  0  0  0
   10.1680   20.5629  190.9491 C   0  0  0  0  0  0  0  0  0  0  0  0
   10.0948   19.5876  190.0101 F   0  0  0  0  0  0  0  0  0  0  0  0
   10.9696   20.4146  192.0559 C   0  0  0  0  0  0  0  0  0  0  0  0
   11.0460   21.4017  193.0091 C   0  0  0  0  0  0  0  0  0  0  0  0
 20 19  2  0
 20 21  1  0
 18 13  1  0
 18 17  2  0
 18 19  1  0
 17 16  1  0
 17 22  1  0
 22 21  2  0
 22 23  1  0
 15 14  1  0
 30 28  1  0
 30 31  2  0
 31 24  1  0
 25 24  2  0
 25 26  1  0
 13 12  2  0
 16 11  2  0
  8  7  1  0
  8  9  1  0
  9 10  1  0
  2  1  1  0
  2  3  1  0
  4  3  1  0
  4  5  1  0
  7  6  1  0
  1  6  1  0
  5  6  1  0
 28 26  2  0
 28 29  1  0
 26 27  1  0
 24 23  1  0
 12 11  1  0
 12 14  1  0
 11 10  1  0
M  CHG  1   6   1
M  END
$$$$
