
     RDKit          3D

 31 34  0  0  0  0  0  0  0  0999 V2000
   17.3193   29.9494  196.8101 C   0  0  0  0  0  0  0  0  0  0  0  0
   18.8201   29.8672  197.0215 C   0  0  0  0  0  0  0  0  0  0  0  0
   19.1143   29.2007  198.1866 O   0  0  0  0  0  0  0  0  0  0  0  0
   18.0334   28.7932  198.9255 C   0  0  0  0  0  0  0  0  0  0  0  0
   17.0063   28.0210  198.1262 C   0  0  0  0  0  0  0  0  0  0  0  0
   16.7840   28.6069  196.8238 N   0  0  0  0  0  4  0  0  0  0  0  0
   15.3751   28.6287  196.5459 C   0  0  0  0  0  0  0  0  0  0  0  0
   14.5639   27.7723  197.4894 C   0  0  0  0  0  0  0  0  0  0  0  0
   13.6330   26.9139  196.6444 C   0  0  0  0  0  0  0  0  0  0  0  0
   12.5273   27.6728  196.2680 O   0  0  0  0  0  0  0  0  0  0  0  0
   11.2680   27.2066  196.0164 C   0  0  0  0  0  0  0  0  0  0  0  0
   10.1976   27.9387  196.4849 C   0  0  0  0  0  0  0  0  0  0  0  0
    8.9130   27.4944  196.2478 C   0  0  0  0  0  0  0  0  0  0  0  0
   10.4347   29.1235  197.1951 O   0  0  0  0  0  0  0  0  0  0  0  0
    9.5855   30.2279  196.9505 C   0  0  0  0  0  0  0  0  0  0  0  0
   10.9955   26.0343  195.3145 C   0  0  0  0  0  0  0  0  0  0  0  0
    9.7086   25.6003  195.0834 C   0  0  0  0  0  0  0  0  0  0  0  0
    8.6420   26.3259  195.5481 C   0  0  0  0  0  0  0  0  0  0  0  0
    7.3831   25.9084  195.3284 N   0  0  0  0  0  0  0  0  0  0  0  0
    7.1032   24.7795  194.6549 C   0  0  0  0  0  0  0  0  0  0  0  0
    8.1327   24.0716  194.2017 N   0  0  0  0  0  0  0  0  0  0  0  0
    9.4319   24.4276  194.3831 C   0  0  0  0  0  0  0  0  0  0  0  0
   10.4832   23.6475  193.8553 N   0  0  0  0  0  0  0  0  0  0  0  0
   10.2448   22.5562  192.9904 C   0  0  0  0  0  0  0  0  0  0  0  0
    9.0057   22.2302  192.5136 C   0  0  0  0  0  0  0  0  0  0  0  0
    8.8130   21.1504  191.6441 C   0  0  0  0  0  0  0  0  0  0  0  0
    7.2139   20.7423  191.0379 Cl  0  0  0  0  0  0  0  0  0  0  0  0
    9.8661   20.3704  191.2332 C   0  0  0  0  0  0  0  0  0  0  0  0
    9.6840   19.3236  190.3910 F   0  0  0  0  0  0  0  0  0  0  0  0
   11.1189   20.6842  191.7039 C   0  0  0  0  0  0  0  0  0  0  0  0
   11.3066   21.7450  192.5574 C   0  0  0  0  0  0  0  0  0  0  0  0
 20 19  2  0
 20 21  1  0
 18 13  1  0
 18 17  2  0
 18 19  1  0
 17 16  1  0
 17 22  1  0
 22 21  2  0
 22 23  1  0
 15 14  1  0
 30 28  1  0
 30 31  2  0
 31 24  1  0
 25 24  2  0
 25 26  1  0
 13 12  2  0
 16 11  2  0
  8  7  1  0
  8  9  1  0
  9 10  1  0
  2  1  1  0
  2  3  1  0
  4  3  1  0
  4  5  1  0
  7  6  1  0
  1  6  1  0
  5  6  1  0
 28 26  2  0
 28 29  1  0
 26 27  1  0
 24 23  1  0
 12 11  1  0
 12 14  1  0
 11 10  1  0
M  CHG  1   6   1
M  END
$$$$
