
     RDKit          3D

 31 34  0  0  0  0  0  0  0  0999 V2000
   17.9605   27.0466  197.0265 C   0  0  0  0  0  0  0  0  0  0  0  0
   18.7858   27.8989  197.9734 C   0  0  0  0  0  0  0  0  0  0  0  0
   18.6038   29.2357  197.7129 O   0  0  0  0  0  0  0  0  0  0  0  0
   17.7764   29.5271  196.6590 C   0  0  0  0  0  0  0  0  0  0  0  0
   16.4401   28.8196  196.7211 C   0  0  0  0  0  0  0  0  0  0  0  0
   16.5762   27.4448  197.1457 N   0  0  0  0  0  4  0  0  0  0  0  0
   15.7442   26.6088  196.3262 C   0  0  0  0  0  0  0  0  0  0  0  0
   14.2669   26.8128  196.5662 C   0  0  0  0  0  0  0  0  0  0  0  0
   13.6792   27.4343  195.3070 C   0  0  0  0  0  0  0  0  0  0  0  0
   12.5083   28.1133  195.6358 O   0  0  0  0  0  0  0  0  0  0  0  0
   11.2317   27.6452  195.5034 C   0  0  0  0  0  0  0  0  0  0  0  0
   10.1996   28.4278  195.9762 C   0  0  0  0  0  0  0  0  0  0  0  0
    8.8987   27.9831  195.8579 C   0  0  0  0  0  0  0  0  0  0  0  0
   10.4914   29.6635  196.5696 O   0  0  0  0  0  0  0  0  0  0  0  0
    9.4291   30.3851  197.1625 C   0  0  0  0  0  0  0  0  0  0  0  0
   10.9051   26.4232  194.9193 C   0  0  0  0  0  0  0  0  0  0  0  0
    9.6025   25.9892  194.8064 C   0  0  0  0  0  0  0  0  0  0  0  0
    8.5738   26.7649  195.2757 C   0  0  0  0  0  0  0  0  0  0  0  0
    7.3000   26.3480  195.1710 N   0  0  0  0  0  0  0  0  0  0  0  0
    6.9682   25.1716  194.6120 C   0  0  0  0  0  0  0  0  0  0  0  0
    7.9608   24.4150  194.1551 N   0  0  0  0  0  0  0  0  0  0  0  0
    9.2719   24.7670  194.2243 C   0  0  0  0  0  0  0  0  0  0  0  0
   10.2807   23.9319  193.6977 N   0  0  0  0  0  0  0  0  0  0  0  0
    9.9785   22.7744  192.9463 C   0  0  0  0  0  0  0  0  0  0  0  0
   10.7315   22.3455  191.8889 C   0  0  0  0  0  0  0  0  0  0  0  0
   10.4084   21.1828  191.1797 C   0  0  0  0  0  0  0  0  0  0  0  0
   11.3856   20.6422  189.8218 Cl  0  0  0  0  0  0  0  0  0  0  0  0
    9.3161   20.4224  191.5186 C   0  0  0  0  0  0  0  0  0  0  0  0
    8.9996   19.2955  190.8344 F   0  0  0  0  0  0  0  0  0  0  0  0
    8.5478   20.8400  192.5793 C   0  0  0  0  0  0  0  0  0  0  0  0
    8.8665   21.9817  193.2749 C   0  0  0  0  0  0  0  0  0  0  0  0
 20 19  2  0
 20 21  1  0
 18 13  1  0
 18 17  2  0
 18 19  1  0
 17 16  1  0
 17 22  1  0
 22 21  2  0
 22 23  1  0
 15 14  1  0
 30 28  1  0
 30 31  2  0
 31 24  1  0
 25 24  2  0
 25 26  1  0
 13 12  2  0
 16 11  2  0
  8  7  1  0
  8  9  1  0
  9 10  1  0
  2  1  1  0
  2  3  1  0
  4  3  1  0
  4  5  1  0
  7  6  1  0
  1  6  1  0
  5  6  1  0
 28 26  2  0
 28 29  1  0
 26 27  1  0
 24 23  1  0
 12 11  1  0
 12 14  1  0
 11 10  1  0
M  CHG  1   6   1
M  END
$$$$
