
     RDKit          3D

 31 34  0  0  0  0  0  0  0  0999 V2000
   17.2641   27.4969  197.2940 C   0  0  0  0  0  0  0  0  0  0  0  0
   18.4518   27.4389  198.2374 C   0  0  0  0  0  0  0  0  0  0  0  0
   19.1650   28.6128  198.1987 O   0  0  0  0  0  0  0  0  0  0  0  0
   18.7065   29.5561  197.3155 C   0  0  0  0  0  0  0  0  0  0  0  0
   17.2275   29.8470  197.4495 C   0  0  0  0  0  0  0  0  0  0  0  0
   16.4561   28.6413  197.6498 N   0  0  0  0  0  4  0  0  0  0  0  0
   15.2748   28.6910  196.8345 C   0  0  0  0  0  0  0  0  0  0  0  0
   14.0516   28.1233  197.5151 C   0  0  0  0  0  0  0  0  0  0  0  0
   13.3554   27.2076  196.5181 C   0  0  0  0  0  0  0  0  0  0  0  0
   12.2663   27.8773  195.9653 O   0  0  0  0  0  0  0  0  0  0  0  0
   11.0266   27.3557  195.7257 C   0  0  0  0  0  0  0  0  0  0  0  0
    9.9262   28.0825  196.1283 C   0  0  0  0  0  0  0  0  0  0  0  0
    8.6601   27.5830  195.9013 C   0  0  0  0  0  0  0  0  0  0  0  0
   10.1142   29.3182  196.7622 O   0  0  0  0  0  0  0  0  0  0  0  0
    8.9681   30.0312  197.1850 C   0  0  0  0  0  0  0  0  0  0  0  0
   10.8025   26.1319  195.0986 C   0  0  0  0  0  0  0  0  0  0  0  0
    9.5338   25.6429  194.8770 C   0  0  0  0  0  0  0  0  0  0  0  0
    8.4374   26.3630  195.2762 C   0  0  0  0  0  0  0  0  0  0  0  0
    7.1960   25.8922  195.0653 N   0  0  0  0  0  0  0  0  0  0  0  0
    6.9627   24.7132  194.4636 C   0  0  0  0  0  0  0  0  0  0  0  0
    8.0214   24.0103  194.0740 N   0  0  0  0  0  0  0  0  0  0  0  0
    9.3056   24.4186  194.2515 C   0  0  0  0  0  0  0  0  0  0  0  0
   10.3894   23.6394  193.7926 N   0  0  0  0  0  0  0  0  0  0  0  0
   10.2332   22.6544  192.7921 C   0  0  0  0  0  0  0  0  0  0  0  0
    9.2513   22.6958  191.8417 C   0  0  0  0  0  0  0  0  0  0  0  0
    9.1400   21.7085  190.8558 C   0  0  0  0  0  0  0  0  0  0  0  0
    7.8726   21.7741  189.6390 Cl  0  0  0  0  0  0  0  0  0  0  0  0
   10.0166   20.6526  190.8035 C   0  0  0  0  0  0  0  0  0  0  0  0
    9.9125   19.6941  189.8502 F   0  0  0  0  0  0  0  0  0  0  0  0
   11.0096   20.5955  191.7522 C   0  0  0  0  0  0  0  0  0  0  0  0
   11.1178   21.5658  192.7195 C   0  0  0  0  0  0  0  0  0  0  0  0
 20 19  2  0
 20 21  1  0
 18 13  1  0
 18 17  2  0
 18 19  1  0
 17 16  1  0
 17 22  1  0
 22 21  2  0
 22 23  1  0
 15 14  1  0
 30 28  1  0
 30 31  2  0
 31 24  1  0
 25 24  2  0
 25 26  1  0
 13 12  2  0
 16 11  2  0
  8  7  1  0
  8  9  1  0
  9 10  1  0
  2  1  1  0
  2  3  1  0
  4  3  1  0
  4  5  1  0
  7  6  1  0
  1  6  1  0
  5  6  1  0
 28 26  2  0
 28 29  1  0
 26 27  1  0
 24 23  1  0
 12 11  1  0
 12 14  1  0
 11 10  1  0
M  CHG  1   6   1
M  END
$$$$
