
     RDKit          3D

 31 34  0  0  0  0  0  0  0  0999 V2000
   17.7124   29.0675  197.4419 C   0  0  0  0  0  0  0  0  0  0  0  0
   19.1839   28.8608  197.1320 C   0  0  0  0  0  0  0  0  0  0  0  0
   19.5380   27.5433  197.2961 O   0  0  0  0  0  0  0  0  0  0  0  0
   18.5399   26.7112  197.7338 C   0  0  0  0  0  0  0  0  0  0  0  0
   17.2646   26.8133  196.9254 C   0  0  0  0  0  0  0  0  0  0  0  0
   16.9414   28.1833  196.5976 N   0  0  0  0  0  4  0  0  0  0  0  0
   15.5361   28.4019  196.7980 C   0  0  0  0  0  0  0  0  0  0  0  0
   14.6627   27.5076  195.9498 C   0  0  0  0  0  0  0  0  0  0  0  0
   13.2789   28.1392  195.8921 C   0  0  0  0  0  0  0  0  0  0  0  0
   12.3829   27.3430  196.6016 O   0  0  0  0  0  0  0  0  0  0  0  0
   11.1134   27.0100  196.2221 C   0  0  0  0  0  0  0  0  0  0  0  0
   10.0865   27.8631  196.5669 C   0  0  0  0  0  0  0  0  0  0  0  0
    8.7928   27.5550  196.1989 C   0  0  0  0  0  0  0  0  0  0  0  0
   10.3763   29.0304  197.2864 O   0  0  0  0  0  0  0  0  0  0  0  0
    9.2932   29.7970  197.7763 C   0  0  0  0  0  0  0  0  0  0  0  0
   10.7891   25.8591  195.5069 C   0  0  0  0  0  0  0  0  0  0  0  0
    9.4937   25.5616  195.1446 C   0  0  0  0  0  0  0  0  0  0  0  0
    8.4702   26.4077  195.4860 C   0  0  0  0  0  0  0  0  0  0  0  0
    7.2031   26.1239  195.1378 N   0  0  0  0  0  0  0  0  0  0  0  0
    6.8733   25.0175  194.4496 C   0  0  0  0  0  0  0  0  0  0  0  0
    7.8609   24.1932  194.1155 N   0  0  0  0  0  0  0  0  0  0  0  0
    9.1651   24.4108  194.4305 C   0  0  0  0  0  0  0  0  0  0  0  0
   10.1740   23.5107  194.0253 N   0  0  0  0  0  0  0  0  0  0  0  0
    9.9114   22.4386  193.1436 C   0  0  0  0  0  0  0  0  0  0  0  0
    9.0458   22.5260  192.0890 C   0  0  0  0  0  0  0  0  0  0  0  0
    8.8253   21.4454  191.2271 C   0  0  0  0  0  0  0  0  0  0  0  0
    7.7095   21.5715  189.8742 Cl  0  0  0  0  0  0  0  0  0  0  0  0
    9.4723   20.2475  191.4072 C   0  0  0  0  0  0  0  0  0  0  0  0
    9.2617   19.1983  190.5747 F   0  0  0  0  0  0  0  0  0  0  0  0
   10.3457   20.1426  192.4634 C   0  0  0  0  0  0  0  0  0  0  0  0
   10.5615   21.2046  193.3087 C   0  0  0  0  0  0  0  0  0  0  0  0
 20 19  2  0
 20 21  1  0
 18 13  1  0
 18 17  2  0
 18 19  1  0
 17 16  1  0
 17 22  1  0
 22 21  2  0
 22 23  1  0
 15 14  1  0
 30 28  1  0
 30 31  2  0
 31 24  1  0
 25 24  2  0
 25 26  1  0
 13 12  2  0
 16 11  2  0
  8  7  1  0
  8  9  1  0
  9 10  1  0
  2  1  1  0
  2  3  1  0
  4  3  1  0
  4  5  1  0
  7  6  1  0
  1  6  1  0
  5  6  1  0
 28 26  2  0
 28 29  1  0
 26 27  1  0
 24 23  1  0
 12 11  1  0
 12 14  1  0
 11 10  1  0
M  CHG  1   6   1
M  END
$$$$
