
     RDKit          3D

 31 34  0  0  0  0  0  0  0  0999 V2000
   17.2387   28.8070  196.7910 C   0  0  0  0  0  0  0  0  0  0  0  0
   18.3372   29.2649  195.8489 C   0  0  0  0  0  0  0  0  0  0  0  0
   19.3007   28.2948  195.7128 O   0  0  0  0  0  0  0  0  0  0  0  0
   19.1109   27.1616  196.4610 C   0  0  0  0  0  0  0  0  0  0  0  0
   17.7329   26.5551  196.3078 C   0  0  0  0  0  0  0  0  0  0  0  0
   16.6981   27.5640  196.2893 N   0  0  0  0  0  4  0  0  0  0  0  0
   15.5981   27.1326  197.1057 C   0  0  0  0  0  0  0  0  0  0  0  0
   14.3557   27.9742  196.9320 C   0  0  0  0  0  0  0  0  0  0  0  0
   13.4301   27.2339  195.9767 C   0  0  0  0  0  0  0  0  0  0  0  0
   12.2650   27.9767  195.8013 O   0  0  0  0  0  0  0  0  0  0  0  0
   11.0082   27.4824  195.5951 C   0  0  0  0  0  0  0  0  0  0  0  0
    9.9367   28.2144  196.0613 C   0  0  0  0  0  0  0  0  0  0  0  0
    8.6545   27.7422  195.8695 C   0  0  0  0  0  0  0  0  0  0  0  0
   10.1703   29.4275  196.7232 O   0  0  0  0  0  0  0  0  0  0  0  0
    9.0513   30.1709  197.1661 C   0  0  0  0  0  0  0  0  0  0  0  0
   10.7392   26.2816  194.9418 C   0  0  0  0  0  0  0  0  0  0  0  0
    9.4547   25.8198  194.7557 C   0  0  0  0  0  0  0  0  0  0  0  0
    8.3870   26.5452  195.2183 C   0  0  0  0  0  0  0  0  0  0  0  0
    7.1305   26.1008  195.0423 N   0  0  0  0  0  0  0  0  0  0  0  0
    6.8540   24.9441  194.4160 C   0  0  0  0  0  0  0  0  0  0  0  0
    7.8846   24.2363  193.9651 N   0  0  0  0  0  0  0  0  0  0  0  0
    9.1816   24.6185  194.1042 C   0  0  0  0  0  0  0  0  0  0  0  0
   10.2333   23.8361  193.5808 N   0  0  0  0  0  0  0  0  0  0  0  0
    9.9968   22.7492  192.7100 C   0  0  0  0  0  0  0  0  0  0  0  0
    9.0949   22.7897  191.6833 C   0  0  0  0  0  0  0  0  0  0  0  0
    8.9014   21.6964  190.8309 C   0  0  0  0  0  0  0  0  0  0  0  0
    7.7384   21.7620  189.5140 Cl  0  0  0  0  0  0  0  0  0  0  0  0
    9.6128   20.5328  190.9927 C   0  0  0  0  0  0  0  0  0  0  0  0
    9.4286   19.4715  190.1693 F   0  0  0  0  0  0  0  0  0  0  0  0
   10.5235   20.4752  192.0207 C   0  0  0  0  0  0  0  0  0  0  0  0
   10.7126   21.5496  192.8567 C   0  0  0  0  0  0  0  0  0  0  0  0
 20 19  2  0
 20 21  1  0
 18 13  1  0
 18 17  2  0
 18 19  1  0
 17 16  1  0
 17 22  1  0
 22 21  2  0
 22 23  1  0
 15 14  1  0
 30 28  1  0
 30 31  2  0
 31 24  1  0
 25 24  2  0
 25 26  1  0
 13 12  2  0
 16 11  2  0
  8  7  1  0
  8  9  1  0
  9 10  1  0
  2  1  1  0
  2  3  1  0
  4  3  1  0
  4  5  1  0
  7  6  1  0
  1  6  1  0
  5  6  1  0
 28 26  2  0
 28 29  1  0
 26 27  1  0
 24 23  1  0
 12 11  1  0
 12 14  1  0
 11 10  1  0
M  CHG  1   6   1
M  END
$$$$
