
     RDKit          3D

 31 34  0  0  0  0  0  0  0  0999 V2000
   16.9530   27.7313  198.2983 C   0  0  0  0  0  0  0  0  0  0  0  0
   18.2731   28.3405  198.7343 C   0  0  0  0  0  0  0  0  0  0  0  0
   18.8032   29.1240  197.7377 O   0  0  0  0  0  0  0  0  0  0  0  0
   18.0841   29.1660  196.5709 C   0  0  0  0  0  0  0  0  0  0  0  0
   16.6200   29.4926  196.7701 C   0  0  0  0  0  0  0  0  0  0  0  0
   16.0634   28.8028  197.9117 N   0  0  0  0  0  4  0  0  0  0  0  0
   14.7711   28.2789  197.5677 C   0  0  0  0  0  0  0  0  0  0  0  0
   14.5714   28.1024  196.0809 C   0  0  0  0  0  0  0  0  0  0  0  0
   13.4431   27.0994  195.8856 C   0  0  0  0  0  0  0  0  0  0  0  0
   12.2463   27.6681  196.3150 O   0  0  0  0  0  0  0  0  0  0  0  0
   10.9867   27.2097  196.0510 C   0  0  0  0  0  0  0  0  0  0  0  0
    9.9163   27.9499  196.5066 C   0  0  0  0  0  0  0  0  0  0  0  0
    8.6313   27.5136  196.2568 C   0  0  0  0  0  0  0  0  0  0  0  0
   10.1537   29.1347  197.2166 O   0  0  0  0  0  0  0  0  0  0  0  0
    9.0393   29.8375  197.7312 C   0  0  0  0  0  0  0  0  0  0  0  0
   10.7139   26.0377  195.3488 C   0  0  0  0  0  0  0  0  0  0  0  0
    9.4266   25.6116  195.1050 C   0  0  0  0  0  0  0  0  0  0  0  0
    8.3600   26.3453  195.5568 C   0  0  0  0  0  0  0  0  0  0  0  0
    7.1007   25.9357  195.3246 N   0  0  0  0  0  0  0  0  0  0  0  0
    6.8205   24.8072  194.6506 C   0  0  0  0  0  0  0  0  0  0  0  0
    7.8501   24.0915  194.2099 N   0  0  0  0  0  0  0  0  0  0  0  0
    9.1496   24.4393  194.4044 C   0  0  0  0  0  0  0  0  0  0  0  0
   10.2012   23.6510  193.8895 N   0  0  0  0  0  0  0  0  0  0  0  0
    9.9738   22.6183  192.9527 C   0  0  0  0  0  0  0  0  0  0  0  0
    9.0713   22.7146  191.9304 C   0  0  0  0  0  0  0  0  0  0  0  0
    8.8871   21.6748  191.0116 C   0  0  0  0  0  0  0  0  0  0  0  0
    7.7230   21.8119  189.7011 Cl  0  0  0  0  0  0  0  0  0  0  0  0
    9.6087   20.5098  191.1007 C   0  0  0  0  0  0  0  0  0  0  0  0
    9.4335   19.5002  190.2129 F   0  0  0  0  0  0  0  0  0  0  0  0
   10.5203   20.3964  192.1234 C   0  0  0  0  0  0  0  0  0  0  0  0
   10.7003   21.4183  193.0246 C   0  0  0  0  0  0  0  0  0  0  0  0
 20 19  2  0
 20 21  1  0
 18 13  1  0
 18 17  2  0
 18 19  1  0
 17 16  1  0
 17 22  1  0
 22 21  2  0
 22 23  1  0
 15 14  1  0
 30 28  1  0
 30 31  2  0
 31 24  1  0
 25 24  2  0
 25 26  1  0
 13 12  2  0
 16 11  2  0
  8  7  1  0
  8  9  1  0
  9 10  1  0
  2  1  1  0
  2  3  1  0
  4  3  1  0
  4  5  1  0
  7  6  1  0
  1  6  1  0
  5  6  1  0
 28 26  2  0
 28 29  1  0
 26 27  1  0
 24 23  1  0
 12 11  1  0
 12 14  1  0
 11 10  1  0
M  CHG  1   6   1
M  END
$$$$
