
     RDKit          3D

 31 34  0  0  0  0  0  0  0  0999 V2000
   17.1739   29.7859  196.8914 C   0  0  0  0  0  0  0  0  0  0  0  0
   18.6798   29.5983  196.8570 C   0  0  0  0  0  0  0  0  0  0  0  0
   19.1410   29.1226  198.0608 O   0  0  0  0  0  0  0  0  0  0  0  0
   18.1915   28.9576  199.0361 C   0  0  0  0  0  0  0  0  0  0  0  0
   16.9879   28.1591  198.5847 C   0  0  0  0  0  0  0  0  0  0  0  0
   16.5666   28.5247  197.2513 N   0  0  0  0  0  4  0  0  0  0  0  0
   15.1349   28.6326  197.2173 C   0  0  0  0  0  0  0  0  0  0  0  0
   14.4622   27.4746  196.5186 C   0  0  0  0  0  0  0  0  0  0  0  0
   13.0875   27.2955  197.1474 C   0  0  0  0  0  0  0  0  0  0  0  0
   12.1202   27.8065  196.2853 O   0  0  0  0  0  0  0  0  0  0  0  0
   10.8760   27.2891  196.0600 C   0  0  0  0  0  0  0  0  0  0  0  0
    9.7845   27.9981  196.5154 C   0  0  0  0  0  0  0  0  0  0  0  0
    8.5142   27.5023  196.3042 C   0  0  0  0  0  0  0  0  0  0  0  0
    9.9858   29.2122  197.1859 O   0  0  0  0  0  0  0  0  0  0  0  0
    8.8475   29.9235  197.6320 C   0  0  0  0  0  0  0  0  0  0  0  0
   10.6389   26.0865  195.3977 C   0  0  0  0  0  0  0  0  0  0  0  0
    9.3661   25.6010  195.1923 C   0  0  0  0  0  0  0  0  0  0  0  0
    8.2786   26.3035  195.6440 C   0  0  0  0  0  0  0  0  0  0  0  0
    7.0333   25.8359  195.4491 N   0  0  0  0  0  0  0  0  0  0  0  0
    6.7875   24.6772  194.8139 C   0  0  0  0  0  0  0  0  0  0  0  0
    7.8374   23.9915  194.3736 N   0  0  0  0  0  0  0  0  0  0  0  0
    9.1248   24.3979  194.5317 C   0  0  0  0  0  0  0  0  0  0  0  0
   10.1983   23.6384  194.0188 N   0  0  0  0  0  0  0  0  0  0  0  0
   10.0066   22.6324  193.0457 C   0  0  0  0  0  0  0  0  0  0  0  0
    9.1334   22.7526  192.0007 C   0  0  0  0  0  0  0  0  0  0  0  0
    8.9843   21.7393  191.0466 C   0  0  0  0  0  0  0  0  0  0  0  0
    7.8577   21.9069  189.7073 Cl  0  0  0  0  0  0  0  0  0  0  0  0
    9.7125   20.5773  191.1224 C   0  0  0  0  0  0  0  0  0  0  0  0
    9.5713   19.5933  190.2004 F   0  0  0  0  0  0  0  0  0  0  0  0
   10.5948   20.4402  192.1675 C   0  0  0  0  0  0  0  0  0  0  0  0
   10.7403   21.4361  193.1034 C   0  0  0  0  0  0  0  0  0  0  0  0
 20 19  2  0
 20 21  1  0
 18 13  1  0
 18 17  2  0
 18 19  1  0
 17 16  1  0
 17 22  1  0
 22 21  2  0
 22 23  1  0
 15 14  1  0
 30 28  1  0
 30 31  2  0
 31 24  1  0
 25 24  2  0
 25 26  1  0
 13 12  2  0
 16 11  2  0
  8  7  1  0
  8  9  1  0
  9 10  1  0
  2  1  1  0
  2  3  1  0
  4  3  1  0
  4  5  1  0
  7  6  1  0
  1  6  1  0
  5  6  1  0
 28 26  2  0
 28 29  1  0
 26 27  1  0
 24 23  1  0
 12 11  1  0
 12 14  1  0
 11 10  1  0
M  CHG  1   6   1
M  END
$$$$
