
     RDKit          3D

 31 34  0  0  0  0  0  0  0  0999 V2000
   18.0357   27.7617  197.6769 C   0  0  0  0  0  0  0  0  0  0  0  0
   19.4484   27.7115  197.1238 C   0  0  0  0  0  0  0  0  0  0  0  0
   19.8891   26.4137  197.0249 O   0  0  0  0  0  0  0  0  0  0  0  0
   19.0151   25.4553  197.4697 C   0  0  0  0  0  0  0  0  0  0  0  0
   17.6249   25.5815  196.8853 C   0  0  0  0  0  0  0  0  0  0  0  0
   17.1862   26.9574  196.8281 N   0  0  0  0  0  4  0  0  0  0  0  0
   15.8210   27.0405  197.2662 C   0  0  0  0  0  0  0  0  0  0  0  0
   14.8520   27.3628  196.1531 C   0  0  0  0  0  0  0  0  0  0  0  0
   13.5082   27.6821  196.7929 C   0  0  0  0  0  0  0  0  0  0  0  0
   12.6001   28.0352  195.7975 O   0  0  0  0  0  0  0  0  0  0  0  0
   11.3274   27.5604  195.6515 C   0  0  0  0  0  0  0  0  0  0  0  0
   10.2924   28.2991  196.1847 C   0  0  0  0  0  0  0  0  0  0  0  0
    8.9954   27.8465  196.0546 C   0  0  0  0  0  0  0  0  0  0  0  0
   10.5774   29.4989  196.8505 O   0  0  0  0  0  0  0  0  0  0  0  0
    9.6107   30.5306  196.8072 C   0  0  0  0  0  0  0  0  0  0  0  0
   11.0077   26.3731  194.9963 C   0  0  0  0  0  0  0  0  0  0  0  0
    9.7088   25.9309  194.8722 C   0  0  0  0  0  0  0  0  0  0  0  0
    8.6773   26.6630  195.4014 C   0  0  0  0  0  0  0  0  0  0  0  0
    7.4072   26.2376  195.2862 N   0  0  0  0  0  0  0  0  0  0  0  0
    7.0820   25.0942  194.6590 C   0  0  0  0  0  0  0  0  0  0  0  0
    8.0774   24.3800  194.1437 N   0  0  0  0  0  0  0  0  0  0  0  0
    9.3851   24.7432  194.2190 C   0  0  0  0  0  0  0  0  0  0  0  0
   10.3967   23.9552  193.6291 N   0  0  0  0  0  0  0  0  0  0  0  0
   10.1024   22.9233  192.7103 C   0  0  0  0  0  0  0  0  0  0  0  0
    9.1889   23.0516  191.7014 C   0  0  0  0  0  0  0  0  0  0  0  0
    8.9376   22.0106  190.8000 C   0  0  0  0  0  0  0  0  0  0  0  0
    7.7602   22.1891  189.5065 Cl  0  0  0  0  0  0  0  0  0  0  0  0
    9.6014   20.8119  190.8937 C   0  0  0  0  0  0  0  0  0  0  0  0
    9.3610   19.8010  190.0227 F   0  0  0  0  0  0  0  0  0  0  0  0
   10.5230   20.6661  191.9031 C   0  0  0  0  0  0  0  0  0  0  0  0
   10.7689   21.6893  192.7872 C   0  0  0  0  0  0  0  0  0  0  0  0
 20 19  2  0
 20 21  1  0
 18 13  1  0
 18 17  2  0
 18 19  1  0
 17 16  1  0
 17 22  1  0
 22 21  2  0
 22 23  1  0
 15 14  1  0
 30 28  1  0
 30 31  2  0
 31 24  1  0
 25 24  2  0
 25 26  1  0
 13 12  2  0
 16 11  2  0
  8  7  1  0
  8  9  1  0
  9 10  1  0
  2  1  1  0
  2  3  1  0
  4  3  1  0
  4  5  1  0
  7  6  1  0
  1  6  1  0
  5  6  1  0
 28 26  2  0
 28 29  1  0
 26 27  1  0
 24 23  1  0
 12 11  1  0
 12 14  1  0
 11 10  1  0
M  CHG  1   6   1
M  END
$$$$
