
     RDKit          3D

 31 34  0  0  0  0  0  0  0  0999 V2000
   17.7190   27.6122  197.3474 C   0  0  0  0  0  0  0  0  0  0  0  0
   18.9527   28.4894  197.4594 C   0  0  0  0  0  0  0  0  0  0  0  0
   19.9185   28.0915  196.5667 O   0  0  0  0  0  0  0  0  0  0  0  0
   19.6075   26.9929  195.8074 C   0  0  0  0  0  0  0  0  0  0  0  0
   18.2651   27.0916  195.1159 C   0  0  0  0  0  0  0  0  0  0  0  0
   17.2529   27.6555  195.9799 N   0  0  0  0  0  4  0  0  0  0  0  0
   16.0372   26.9032  195.8431 C   0  0  0  0  0  0  0  0  0  0  0  0
   14.8534   27.5460  196.5267 C   0  0  0  0  0  0  0  0  0  0  0  0
   13.6255   26.7065  196.2032 C   0  0  0  0  0  0  0  0  0  0  0  0
   12.5389   27.5505  195.9857 O   0  0  0  0  0  0  0  0  0  0  0  0
   11.2480   27.1707  195.7498 C   0  0  0  0  0  0  0  0  0  0  0  0
   10.2367   27.9115  196.3241 C   0  0  0  0  0  0  0  0  0  0  0  0
    8.9221   27.5535  196.1056 C   0  0  0  0  0  0  0  0  0  0  0  0
   10.5633   29.0171  197.1211 O   0  0  0  0  0  0  0  0  0  0  0  0
    9.5836   30.0213  197.3009 C   0  0  0  0  0  0  0  0  0  0  0  0
   10.8870   26.0787  194.9636 C   0  0  0  0  0  0  0  0  0  0  0  0
    9.5709   25.7304  194.7521 C   0  0  0  0  0  0  0  0  0  0  0  0
    8.5629   26.4649  195.3218 C   0  0  0  0  0  0  0  0  0  0  0  0
    7.2762   26.1308  195.1218 N   0  0  0  0  0  0  0  0  0  0  0  0
    6.9111   25.0797  194.3678 C   0  0  0  0  0  0  0  0  0  0  0  0
    7.8836   24.3638  193.8127 N   0  0  0  0  0  0  0  0  0  0  0  0
    9.2058   24.6380  193.9677 C   0  0  0  0  0  0  0  0  0  0  0  0
   10.1932   23.8555  193.3311 N   0  0  0  0  0  0  0  0  0  0  0  0
    9.8640   22.8536  192.3911 C   0  0  0  0  0  0  0  0  0  0  0  0
   10.2244   21.5423  192.5313 C   0  0  0  0  0  0  0  0  0  0  0  0
    9.8641   20.5755  191.5854 C   0  0  0  0  0  0  0  0  0  0  0  0
   10.3338   18.8922  191.7781 Cl  0  0  0  0  0  0  0  0  0  0  0  0
    9.1309   20.9068  190.4724 C   0  0  0  0  0  0  0  0  0  0  0  0
    8.7797   19.9735  189.5538 F   0  0  0  0  0  0  0  0  0  0  0  0
    8.7608   22.2214  190.3159 C   0  0  0  0  0  0  0  0  0  0  0  0
    9.1151   23.1696  191.2456 C   0  0  0  0  0  0  0  0  0  0  0  0
 20 19  2  0
 20 21  1  0
 18 13  1  0
 18 17  2  0
 18 19  1  0
 17 16  1  0
 17 22  1  0
 22 21  2  0
 22 23  1  0
 15 14  1  0
 30 28  1  0
 30 31  2  0
 31 24  1  0
 25 24  2  0
 25 26  1  0
 13 12  2  0
 16 11  2  0
  8  7  1  0
  8  9  1  0
  9 10  1  0
  2  1  1  0
  2  3  1  0
  4  3  1  0
  4  5  1  0
  7  6  1  0
  1  6  1  0
  5  6  1  0
 28 26  2  0
 28 29  1  0
 26 27  1  0
 24 23  1  0
 12 11  1  0
 12 14  1  0
 11 10  1  0
M  CHG  1   6   1
M  END
$$$$
