
     RDKit          3D

 31 34  0  0  0  0  0  0  0  0999 V2000
   17.6277   29.6292  197.0653 C   0  0  0  0  0  0  0  0  0  0  0  0
   19.1282   29.4127  196.9911 C   0  0  0  0  0  0  0  0  0  0  0  0
   19.5758   28.7107  198.0842 O   0  0  0  0  0  0  0  0  0  0  0  0
   18.6213   28.3923  199.0158 C   0  0  0  0  0  0  0  0  0  0  0  0
   17.3980   27.7222  198.4288 C   0  0  0  0  0  0  0  0  0  0  0  0
   16.9876   28.3391  197.1879 N   0  0  0  0  0  4  0  0  0  0  0  0
   15.5591   28.4880  197.1799 C   0  0  0  0  0  0  0  0  0  0  0  0
   14.8571   27.4939  196.2852 C   0  0  0  0  0  0  0  0  0  0  0  0
   13.4586   27.2791  196.8469 C   0  0  0  0  0  0  0  0  0  0  0  0
   12.5260   27.8440  195.9801 O   0  0  0  0  0  0  0  0  0  0  0  0
   11.2540   27.4007  195.7523 C   0  0  0  0  0  0  0  0  0  0  0  0
   10.2053   28.1678  196.2139 C   0  0  0  0  0  0  0  0  0  0  0  0
    8.9085   27.7474  196.0003 C   0  0  0  0  0  0  0  0  0  0  0  0
   10.4764   29.3633  196.8932 O   0  0  0  0  0  0  0  0  0  0  0  0
    9.3813   30.1536  197.3138 C   0  0  0  0  0  0  0  0  0  0  0  0
   10.9478   26.2187  195.0813 C   0  0  0  0  0  0  0  0  0  0  0  0
    9.6491   25.8087  194.8735 C   0  0  0  0  0  0  0  0  0  0  0  0
    8.6040   26.5691  195.3314 C   0  0  0  0  0  0  0  0  0  0  0  0
    7.3338   26.1753  195.1344 N   0  0  0  0  0  0  0  0  0  0  0  0
    7.0215   25.0374  194.4907 C   0  0  0  0  0  0  0  0  0  0  0  0
    8.0301   24.2959  194.0443 N   0  0  0  0  0  0  0  0  0  0  0  0
    9.3388   24.6264  194.2042 C   0  0  0  0  0  0  0  0  0  0  0  0
   10.3666   23.8104  193.6846 N   0  0  0  0  0  0  0  0  0  0  0  0
   10.1131   22.8091  192.7208 C   0  0  0  0  0  0  0  0  0  0  0  0
    9.2881   22.9905  191.6459 C   0  0  0  0  0  0  0  0  0  0  0  0
    9.0758   21.9783  190.7027 C   0  0  0  0  0  0  0  0  0  0  0  0
    8.0123   22.2250  189.3246 Cl  0  0  0  0  0  0  0  0  0  0  0  0
    9.6903   20.7556  190.8199 C   0  0  0  0  0  0  0  0  0  0  0  0
    9.4875   19.7725  189.9085 F   0  0  0  0  0  0  0  0  0  0  0  0
   10.5228   20.5565  191.8954 C   0  0  0  0  0  0  0  0  0  0  0  0
   10.7305   21.5514  192.8206 C   0  0  0  0  0  0  0  0  0  0  0  0
 20 19  2  0
 20 21  1  0
 18 13  1  0
 18 17  2  0
 18 19  1  0
 17 16  1  0
 17 22  1  0
 22 21  2  0
 22 23  1  0
 15 14  1  0
 30 28  1  0
 30 31  2  0
 31 24  1  0
 25 24  2  0
 25 26  1  0
 13 12  2  0
 16 11  2  0
  8  7  1  0
  8  9  1  0
  9 10  1  0
  2  1  1  0
  2  3  1  0
  4  3  1  0
  4  5  1  0
  7  6  1  0
  1  6  1  0
  5  6  1  0
 28 26  2  0
 28 29  1  0
 26 27  1  0
 24 23  1  0
 12 11  1  0
 12 14  1  0
 11 10  1  0
M  CHG  1   6   1
M  END
$$$$
