
     RDKit          3D

 31 34  0  0  0  0  0  0  0  0999 V2000
   17.5870   28.9177  197.4409 C   0  0  0  0  0  0  0  0  0  0  0  0
   19.0513   28.9036  197.0414 C   0  0  0  0  0  0  0  0  0  0  0  0
   19.4433   27.6419  196.6640 O   0  0  0  0  0  0  0  0  0  0  0  0
   18.4819   26.6688  196.7602 C   0  0  0  0  0  0  0  0  0  0  0  0
   17.1769   27.0343  196.0868 C   0  0  0  0  0  0  0  0  0  0  0  0
   16.8087   28.4099  196.3339 N   0  0  0  0  0  4  0  0  0  0  0  0
   15.4064   28.4805  196.6360 C   0  0  0  0  0  0  0  0  0  0  0  0
   14.6595   27.2061  196.3198 C   0  0  0  0  0  0  0  0  0  0  0  0
   13.3002   27.2904  197.0000 C   0  0  0  0  0  0  0  0  0  0  0  0
   12.3676   27.7956  196.0971 O   0  0  0  0  0  0  0  0  0  0  0  0
   11.1180   27.2994  195.8548 C   0  0  0  0  0  0  0  0  0  0  0  0
   10.0332   28.0171  196.3122 C   0  0  0  0  0  0  0  0  0  0  0  0
    8.7577   27.5426  196.0842 C   0  0  0  0  0  0  0  0  0  0  0  0
   10.2464   29.2184  197.0020 O   0  0  0  0  0  0  0  0  0  0  0  0
    9.1145   29.9578  197.4175 C   0  0  0  0  0  0  0  0  0  0  0  0
   10.8691   26.1101  195.1731 C   0  0  0  0  0  0  0  0  0  0  0  0
    9.5912   25.6458  194.9509 C   0  0  0  0  0  0  0  0  0  0  0  0
    8.5103   26.3571  195.4046 C   0  0  0  0  0  0  0  0  0  0  0  0
    7.2601   25.9102  195.1935 N   0  0  0  0  0  0  0  0  0  0  0  0
    7.0029   24.7645  194.5394 C   0  0  0  0  0  0  0  0  0  0  0  0
    8.0464   24.0704  194.0970 N   0  0  0  0  0  0  0  0  0  0  0  0
    9.3382   24.4561  194.2709 C   0  0  0  0  0  0  0  0  0  0  0  0
   10.4048   23.6889  193.7550 N   0  0  0  0  0  0  0  0  0  0  0  0
   10.1990   22.6619  192.8071 C   0  0  0  0  0  0  0  0  0  0  0  0
    9.3794   22.7933  191.7208 C   0  0  0  0  0  0  0  0  0  0  0  0
    9.2149   21.7573  190.7940 C   0  0  0  0  0  0  0  0  0  0  0  0
    8.1580   21.9398  189.4009 Cl  0  0  0  0  0  0  0  0  0  0  0  0
    9.8730   20.5607  190.9396 C   0  0  0  0  0  0  0  0  0  0  0  0
    9.7166   19.5546  190.0443 F   0  0  0  0  0  0  0  0  0  0  0  0
   10.7006   20.4118  192.0269 C   0  0  0  0  0  0  0  0  0  0  0  0
   10.8614   21.4301  192.9359 C   0  0  0  0  0  0  0  0  0  0  0  0
 20 19  2  0
 20 21  1  0
 18 13  1  0
 18 17  2  0
 18 19  1  0
 17 16  1  0
 17 22  1  0
 22 21  2  0
 22 23  1  0
 15 14  1  0
 30 28  1  0
 30 31  2  0
 31 24  1  0
 25 24  2  0
 25 26  1  0
 13 12  2  0
 16 11  2  0
  8  7  1  0
  8  9  1  0
  9 10  1  0
  2  1  1  0
  2  3  1  0
  4  3  1  0
  4  5  1  0
  7  6  1  0
  1  6  1  0
  5  6  1  0
 28 26  2  0
 28 29  1  0
 26 27  1  0
 24 23  1  0
 12 11  1  0
 12 14  1  0
 11 10  1  0
M  CHG  1   6   1
M  END
$$$$
