
     RDKit          3D

 31 34  0  0  0  0  0  0  0  0999 V2000
   17.3221   29.9618  197.0346 C   0  0  0  0  0  0  0  0  0  0  0  0
   18.7494   30.3912  196.7473 C   0  0  0  0  0  0  0  0  0  0  0  0
   19.6304   29.7541  197.5875 O   0  0  0  0  0  0  0  0  0  0  0  0
   19.0650   28.9185  198.5162 C   0  0  0  0  0  0  0  0  0  0  0  0
   18.0920   27.9216  197.9251 C   0  0  0  0  0  0  0  0  0  0  0  0
   17.2479   28.5231  196.9179 N   0  0  0  0  0  4  0  0  0  0  0  0
   15.8952   28.0767  197.1019 C   0  0  0  0  0  0  0  0  0  0  0  0
   15.0374   28.2370  195.8689 C   0  0  0  0  0  0  0  0  0  0  0  0
   13.9679   27.1545  195.9104 C   0  0  0  0  0  0  0  0  0  0  0  0
   12.7721   27.7103  196.3590 O   0  0  0  0  0  0  0  0  0  0  0  0
   11.5108   27.3069  196.0230 C   0  0  0  0  0  0  0  0  0  0  0  0
   10.4531   28.1190  196.3735 C   0  0  0  0  0  0  0  0  0  0  0  0
    9.1667   27.7396  196.0490 C   0  0  0  0  0  0  0  0  0  0  0  0
   10.7045   29.3179  197.0545 O   0  0  0  0  0  0  0  0  0  0  0  0
    9.7589   30.3629  196.9347 C   0  0  0  0  0  0  0  0  0  0  0  0
   11.2242   26.1229  195.3468 C   0  0  0  0  0  0  0  0  0  0  0  0
    9.9357   25.7541  195.0277 C   0  0  0  0  0  0  0  0  0  0  0  0
    8.8817   26.5594  195.3749 C   0  0  0  0  0  0  0  0  0  0  0  0
    7.6212   26.2060  195.0689 N   0  0  0  0  0  0  0  0  0  0  0  0
    7.3276   25.0669  194.4186 C   0  0  0  0  0  0  0  0  0  0  0  0
    8.3450   24.2820  194.0792 N   0  0  0  0  0  0  0  0  0  0  0  0
    9.6448   24.5701  194.3528 C   0  0  0  0  0  0  0  0  0  0  0  0
   10.6853   23.7085  193.9436 N   0  0  0  0  0  0  0  0  0  0  0  0
   10.4797   22.6851  192.9917 C   0  0  0  0  0  0  0  0  0  0  0  0
   11.4939   21.9434  192.4529 C   0  0  0  0  0  0  0  0  0  0  0  0
   11.2475   20.9256  191.5242 C   0  0  0  0  0  0  0  0  0  0  0  0
   12.5612   19.9789  190.8392 Cl  0  0  0  0  0  0  0  0  0  0  0  0
    9.9705   20.6297  191.1142 C   0  0  0  0  0  0  0  0  0  0  0  0
    9.7274   19.6447  190.2149 F   0  0  0  0  0  0  0  0  0  0  0  0
    8.9391   21.3666  191.6459 C   0  0  0  0  0  0  0  0  0  0  0  0
    9.1826   22.3655  192.5579 C   0  0  0  0  0  0  0  0  0  0  0  0
 20 19  2  0
 20 21  1  0
 18 13  1  0
 18 17  2  0
 18 19  1  0
 17 16  1  0
 17 22  1  0
 22 21  2  0
 22 23  1  0
 15 14  1  0
 30 28  1  0
 30 31  2  0
 31 24  1  0
 25 24  2  0
 25 26  1  0
 13 12  2  0
 16 11  2  0
  8  7  1  0
  8  9  1  0
  9 10  1  0
  2  1  1  0
  2  3  1  0
  4  3  1  0
  4  5  1  0
  7  6  1  0
  1  6  1  0
  5  6  1  0
 28 26  2  0
 28 29  1  0
 26 27  1  0
 24 23  1  0
 12 11  1  0
 12 14  1  0
 11 10  1  0
M  CHG  1   6   1
M  END
$$$$
