
     RDKit          3D

 31 34  0  0  0  0  0  0  0  0999 V2000
   17.5257   28.2292  195.4703 C   0  0  0  0  0  0  0  0  0  0  0  0
   19.0088   27.9132  195.5384 C   0  0  0  0  0  0  0  0  0  0  0  0
   19.6628   28.8081  196.3504 O   0  0  0  0  0  0  0  0  0  0  0  0
   18.8840   29.8015  196.8861 C   0  0  0  0  0  0  0  0  0  0  0  0
   17.6335   29.2923  197.5696 C   0  0  0  0  0  0  0  0  0  0  0  0
   16.9995   28.2341  196.8165 N   0  0  0  0  0  4  0  0  0  0  0  0
   15.5796   28.4490  196.7964 C   0  0  0  0  0  0  0  0  0  0  0  0
   14.7781   27.1701  196.8576 C   0  0  0  0  0  0  0  0  0  0  0  0
   13.3721   27.5314  197.3159 C   0  0  0  0  0  0  0  0  0  0  0  0
   12.5784   27.7850  196.1997 O   0  0  0  0  0  0  0  0  0  0  0  0
   11.3055   27.3365  195.9877 C   0  0  0  0  0  0  0  0  0  0  0  0
   10.2598   28.0942  196.4711 C   0  0  0  0  0  0  0  0  0  0  0  0
    8.9622   27.6684  196.2738 C   0  0  0  0  0  0  0  0  0  0  0  0
   10.5347   29.2859  197.1556 O   0  0  0  0  0  0  0  0  0  0  0  0
    9.4442   30.1029  197.5351 C   0  0  0  0  0  0  0  0  0  0  0  0
   10.9955   26.1581  195.3121 C   0  0  0  0  0  0  0  0  0  0  0  0
    9.6960   25.7426  195.1207 C   0  0  0  0  0  0  0  0  0  0  0  0
    8.6539   26.4937  195.6003 C   0  0  0  0  0  0  0  0  0  0  0  0
    7.3830   26.0944  195.4194 N   0  0  0  0  0  0  0  0  0  0  0  0
    7.0671   24.9599  194.7717 C   0  0  0  0  0  0  0  0  0  0  0  0
    8.0728   24.2274  194.3042 N   0  0  0  0  0  0  0  0  0  0  0  0
    9.3820   24.5639  194.4469 C   0  0  0  0  0  0  0  0  0  0  0  0
   10.4062   23.7575  193.9055 N   0  0  0  0  0  0  0  0  0  0  0  0
   10.1304   22.6847  193.0287 C   0  0  0  0  0  0  0  0  0  0  0  0
    9.3388   22.8027  191.9204 C   0  0  0  0  0  0  0  0  0  0  0  0
    9.1032   21.7192  191.0662 C   0  0  0  0  0  0  0  0  0  0  0  0
    8.0832   21.8848  189.6437 Cl  0  0  0  0  0  0  0  0  0  0  0  0
    9.6600   20.4874  191.3084 C   0  0  0  0  0  0  0  0  0  0  0  0
    9.4345   19.4352  190.4836 F   0  0  0  0  0  0  0  0  0  0  0  0
   10.4583   20.3514  192.4192 C   0  0  0  0  0  0  0  0  0  0  0  0
   10.6890   21.4163  193.2569 C   0  0  0  0  0  0  0  0  0  0  0  0
 20 19  2  0
 20 21  1  0
 18 13  1  0
 18 17  2  0
 18 19  1  0
 17 16  1  0
 17 22  1  0
 22 21  2  0
 22 23  1  0
 15 14  1  0
 30 28  1  0
 30 31  2  0
 31 24  1  0
 25 24  2  0
 25 26  1  0
 13 12  2  0
 16 11  2  0
  8  7  1  0
  8  9  1  0
  9 10  1  0
  2  1  1  0
  2  3  1  0
  4  3  1  0
  4  5  1  0
  7  6  1  0
  1  6  1  0
  5  6  1  0
 28 26  2  0
 28 29  1  0
 26 27  1  0
 24 23  1  0
 12 11  1  0
 12 14  1  0
 11 10  1  0
M  CHG  1   6   1
M  END
$$$$
