
     RDKit          3D

 31 34  0  0  0  0  0  0  0  0999 V2000
   17.6004   26.4506  195.6888 C   0  0  0  0  0  0  0  0  0  0  0  0
   18.4001   25.4226  196.4684 C   0  0  0  0  0  0  0  0  0  0  0  0
   18.7618   25.9151  197.6991 O   0  0  0  0  0  0  0  0  0  0  0  0
   18.3811   27.2071  197.9559 C   0  0  0  0  0  0  0  0  0  0  0  0
   16.9138   27.4718  197.6973 C   0  0  0  0  0  0  0  0  0  0  0  0
   16.4559   26.8345  196.4836 N   0  0  0  0  0  4  0  0  0  0  0  0
   15.6235   27.7476  195.7513 C   0  0  0  0  0  0  0  0  0  0  0  0
   14.2817   27.9898  196.4015 C   0  0  0  0  0  0  0  0  0  0  0  0
   13.2246   27.3196  195.5351 C   0  0  0  0  0  0  0  0  0  0  0  0
   12.0061   27.9700  195.7152 O   0  0  0  0  0  0  0  0  0  0  0  0
   10.7630   27.4372  195.5225 C   0  0  0  0  0  0  0  0  0  0  0  0
    9.6731   28.1461  195.9814 C   0  0  0  0  0  0  0  0  0  0  0  0
    8.4040   27.6348  195.8027 C   0  0  0  0  0  0  0  0  0  0  0  0
    9.8747   29.3760  196.6225 O   0  0  0  0  0  0  0  0  0  0  0  0
    8.7370   30.0927  197.0614 C   0  0  0  0  0  0  0  0  0  0  0  0
   10.5257   26.2187  194.8899 C   0  0  0  0  0  0  0  0  0  0  0  0
    9.2540   25.7178  194.7167 C   0  0  0  0  0  0  0  0  0  0  0  0
    8.1680   26.4202  195.1721 C   0  0  0  0  0  0  0  0  0  0  0  0
    6.9239   25.9377  195.0087 N   0  0  0  0  0  0  0  0  0  0  0  0
    6.6779   24.7637  194.4024 C   0  0  0  0  0  0  0  0  0  0  0  0
    7.7264   24.0780  193.9586 N   0  0  0  0  0  0  0  0  0  0  0  0
    9.0125   24.4989  194.0860 C   0  0  0  0  0  0  0  0  0  0  0  0
   10.0840   23.7380  193.5708 N   0  0  0  0  0  0  0  0  0  0  0  0
    9.8793   22.6723  192.6663 C   0  0  0  0  0  0  0  0  0  0  0  0
    8.9635   22.7113  191.6520 C   0  0  0  0  0  0  0  0  0  0  0  0
    8.8023   21.6404  190.7653 C   0  0  0  0  0  0  0  0  0  0  0  0
    7.6209   21.7037  189.4647 Cl  0  0  0  0  0  0  0  0  0  0  0  0
    9.5609   20.5012  190.8792 C   0  0  0  0  0  0  0  0  0  0  0  0
    9.4080   19.4616  190.0225 F   0  0  0  0  0  0  0  0  0  0  0  0
   10.4861   20.4455  191.8943 C   0  0  0  0  0  0  0  0  0  0  0  0
   10.6435   21.4979  192.7641 C   0  0  0  0  0  0  0  0  0  0  0  0
 20 19  2  0
 20 21  1  0
 18 13  1  0
 18 17  2  0
 18 19  1  0
 17 16  1  0
 17 22  1  0
 22 21  2  0
 22 23  1  0
 15 14  1  0
 30 28  1  0
 30 31  2  0
 31 24  1  0
 25 24  2  0
 25 26  1  0
 13 12  2  0
 16 11  2  0
  8  7  1  0
  8  9  1  0
  9 10  1  0
  2  1  1  0
  2  3  1  0
  4  3  1  0
  4  5  1  0
  7  6  1  0
  1  6  1  0
  5  6  1  0
 28 26  2  0
 28 29  1  0
 26 27  1  0
 24 23  1  0
 12 11  1  0
 12 14  1  0
 11 10  1  0
M  CHG  1   6   1
M  END
$$$$
