
     RDKit          3D

 31 34  0  0  0  0  0  0  0  0999 V2000
   17.5675   26.9267  197.0273 C   0  0  0  0  0  0  0  0  0  0  0  0
   18.9335   27.3138  196.4905 C   0  0  0  0  0  0  0  0  0  0  0  0
   19.2432   26.5833  195.3687 O   0  0  0  0  0  0  0  0  0  0  0  0
   18.3109   25.6507  194.9924 C   0  0  0  0  0  0  0  0  0  0  0  0
   16.9064   26.2037  194.8852 C   0  0  0  0  0  0  0  0  0  0  0  0
   16.5967   27.1053  195.9715 N   0  0  0  0  0  4  0  0  0  0  0  0
   15.2740   26.8282  196.4578 C   0  0  0  0  0  0  0  0  0  0  0  0
   14.3566   28.0276  196.4186 C   0  0  0  0  0  0  0  0  0  0  0  0
   12.9697   27.5581  196.8350 C   0  0  0  0  0  0  0  0  0  0  0  0
   12.0274   28.0712  195.9468 O   0  0  0  0  0  0  0  0  0  0  0  0
   10.7831   27.5649  195.6985 C   0  0  0  0  0  0  0  0  0  0  0  0
    9.6920   28.2508  196.1887 C   0  0  0  0  0  0  0  0  0  0  0  0
    8.4216   27.7654  195.9555 C   0  0  0  0  0  0  0  0  0  0  0  0
    9.8938   29.4314  196.9165 O   0  0  0  0  0  0  0  0  0  0  0  0
    8.9280   30.4584  196.8012 C   0  0  0  0  0  0  0  0  0  0  0  0
   10.5454   26.3955  194.9794 C   0  0  0  0  0  0  0  0  0  0  0  0
    9.2725   25.9200  194.7525 C   0  0  0  0  0  0  0  0  0  0  0  0
    8.1854   26.5996  195.2387 C   0  0  0  0  0  0  0  0  0  0  0  0
    6.9400   26.1416  195.0231 N   0  0  0  0  0  0  0  0  0  0  0  0
    6.6937   25.0147  194.3333 C   0  0  0  0  0  0  0  0  0  0  0  0
    7.7433   24.3512  193.8592 N   0  0  0  0  0  0  0  0  0  0  0  0
    9.0307   24.7500  194.0351 C   0  0  0  0  0  0  0  0  0  0  0  0
   10.1038   24.0163  193.4850 N   0  0  0  0  0  0  0  0  0  0  0  0
    9.8990   22.9726  192.5553 C   0  0  0  0  0  0  0  0  0  0  0  0
    8.9758   23.0316  191.5487 C   0  0  0  0  0  0  0  0  0  0  0  0
    8.8146   21.9824  190.6363 C   0  0  0  0  0  0  0  0  0  0  0  0
    7.6236   22.0714  189.3460 Cl  0  0  0  0  0  0  0  0  0  0  0  0
    9.5808   20.8454  190.7160 C   0  0  0  0  0  0  0  0  0  0  0  0
    9.4280   19.8269  189.8343 F   0  0  0  0  0  0  0  0  0  0  0  0
   10.5136   20.7698  191.7228 C   0  0  0  0  0  0  0  0  0  0  0  0
   10.6709   21.8008  192.6179 C   0  0  0  0  0  0  0  0  0  0  0  0
 20 19  2  0
 20 21  1  0
 18 13  1  0
 18 17  2  0
 18 19  1  0
 17 16  1  0
 17 22  1  0
 22 21  2  0
 22 23  1  0
 15 14  1  0
 30 28  1  0
 30 31  2  0
 31 24  1  0
 25 24  2  0
 25 26  1  0
 13 12  2  0
 16 11  2  0
  8  7  1  0
  8  9  1  0
  9 10  1  0
  2  1  1  0
  2  3  1  0
  4  3  1  0
  4  5  1  0
  7  6  1  0
  1  6  1  0
  5  6  1  0
 28 26  2  0
 28 29  1  0
 26 27  1  0
 24 23  1  0
 12 11  1  0
 12 14  1  0
 11 10  1  0
M  CHG  1   6   1
M  END
$$$$
