
     RDKit          3D

 31 34  0  0  0  0  0  0  0  0999 V2000
   26.9283  -28.9477  -43.1995 C   0  0  0  0  0  0  0  0  0  0  0  0
   26.7562  -30.2593  -43.9306 C   0  0  0  0  0  0  0  0  0  0  0  0
   25.7474  -31.0465  -43.3439 O   0  0  0  0  0  0  0  0  0  0  0  0
   24.5486  -30.3056  -43.2750 C   0  0  0  0  0  0  0  0  0  0  0  0
   24.7155  -29.0495  -42.4482 C   0  0  0  0  0  0  0  0  0  0  0  0
   26.0884  -28.9823  -42.0232 N   0  0  0  0  0  4  0  0  0  0  0  0
   26.3454  -27.8703  -41.1352 C   0  0  0  0  0  0  0  0  0  0  0  0
   27.8118  -27.7695  -40.7689 C   0  0  0  0  0  0  0  0  0  0  0  0
   27.9834  -26.5469  -39.9030 C   0  0  0  0  0  0  0  0  0  0  0  0
   29.1050  -26.6061  -39.0834 O   0  0  0  0  0  0  0  0  0  0  0  0
   29.5072  -25.6932  -38.1410 C   0  0  0  0  0  0  0  0  0  0  0  0
   30.3200  -26.1614  -37.1129 C   0  0  0  0  0  0  0  0  0  0  0  0
   30.7742  -25.3177  -36.1182 C   0  0  0  0  0  0  0  0  0  0  0  0
   30.6960  -27.4919  -37.0589 O   0  0  0  0  0  0  0  0  0  0  0  0
   31.5584  -27.9327  -36.0355 C   0  0  0  0  0  0  0  0  0  0  0  0
   29.1535  -24.3627  -38.1614 C   0  0  0  0  0  0  0  0  0  0  0  0
   29.5926  -23.4977  -37.1801 C   0  0  0  0  0  0  0  0  0  0  0  0
   30.4133  -23.9789  -36.1448 C   0  0  0  0  0  0  0  0  0  0  0  0
   30.8165  -23.1278  -35.2068 N   0  0  0  0  0  0  0  0  0  0  0  0
   30.4647  -21.8269  -35.2172 C   0  0  0  0  0  0  0  0  0  0  0  0
   29.6790  -21.3945  -36.2189 N   0  0  0  0  0  0  0  0  0  0  0  0
   29.2223  -22.1756  -37.2095 C   0  0  0  0  0  0  0  0  0  0  0  0
   28.4010  -21.6896  -38.2445 N   0  0  0  0  0  0  0  0  0  0  0  0
   28.2150  -20.3167  -38.5348 C   0  0  0  0  0  0  0  0  0  0  0  0
   29.2482  -19.4108  -38.4100 C   0  0  0  0  0  0  0  0  0  0  0  0
   29.1245  -18.0642  -38.6853 C   0  0  0  0  0  0  0  0  0  0  0  0
   30.4499  -16.9331  -38.5246 Cl  0  0  0  0  0  0  0  0  0  0  0  0
   27.9018  -17.5517  -39.1155 C   0  0  0  0  0  0  0  0  0  0  0  0
   27.7637  -16.2312  -39.3913 F   0  0  0  0  0  0  0  0  0  0  0  0
   26.8642  -18.4460  -39.2430 C   0  0  0  0  0  0  0  0  0  0  0  0
   26.9985  -19.7969  -38.9648 C   0  0  0  0  0  0  0  0  0  0  0  0
 20 19  2  0
 20 21  1  0
 18 13  1  0
 18 17  2  0
 18 19  1  0
 17 16  1  0
 17 22  1  0
 22 21  2  0
 22 23  1  0
 15 14  1  0
 30 28  1  0
 30 31  2  0
 31 24  1  0
 25 24  2  0
 25 26  1  0
 13 12  2  0
 16 11  2  0
  8  7  1  0
  8  9  1  0
  9 10  1  0
  2  1  1  0
  2  3  1  0
  4  3  1  0
  4  5  1  0
  7  6  1  0
  1  6  1  0
  5  6  1  0
 28 26  2  0
 28 29  1  0
 26 27  1  0
 24 23  1  0
 12 11  1  0
 12 14  1  0
 11 10  1  0
M  CHG  1   6   1
M  END
$$$$
