
     RDKit          3D

 31 34  0  0  0  0  0  0  0  0999 V2000
   25.2129  -29.5536  -42.2922 C   0  0  0  0  0  0  0  0  0  0  0  0
   24.3769  -29.4696  -43.5487 C   0  0  0  0  0  0  0  0  0  0  0  0
   25.0099  -28.6916  -44.5363 O   0  0  0  0  0  0  0  0  0  0  0  0
   26.3036  -29.1988  -44.7816 C   0  0  0  0  0  0  0  0  0  0  0  0
   27.1587  -29.1741  -43.5336 C   0  0  0  0  0  0  0  0  0  0  0  0
   26.3482  -28.6735  -42.4554 N   0  0  0  0  0  4  0  0  0  0  0  0
   27.0922  -28.5076  -41.2266 C   0  0  0  0  0  0  0  0  0  0  0  0
   27.4789  -27.0617  -40.9931 C   0  0  0  0  0  0  0  0  0  0  0  0
   27.6945  -26.8798  -39.5118 C   0  0  0  0  0  0  0  0  0  0  0  0
   29.0255  -26.6650  -39.1718 O   0  0  0  0  0  0  0  0  0  0  0  0
   29.5286  -25.7523  -38.2790 C   0  0  0  0  0  0  0  0  0  0  0  0
   30.4612  -26.2174  -37.3565 C   0  0  0  0  0  0  0  0  0  0  0  0
   31.0228  -25.3737  -36.4183 C   0  0  0  0  0  0  0  0  0  0  0  0
   30.8521  -27.5447  -37.3541 O   0  0  0  0  0  0  0  0  0  0  0  0
   31.8644  -27.9728  -36.4725 C   0  0  0  0  0  0  0  0  0  0  0  0
   29.1640  -24.4249  -38.2507 C   0  0  0  0  0  0  0  0  0  0  0  0
   29.7088  -23.5600  -37.3239 C   0  0  0  0  0  0  0  0  0  0  0  0
   30.6502  -24.0381  -36.3952 C   0  0  0  0  0  0  0  0  0  0  0  0
   31.1543  -23.1872  -35.5073 N   0  0  0  0  0  0  0  0  0  0  0  0
   30.7929  -21.8895  -35.4694 C   0  0  0  0  0  0  0  0  0  0  0  0
   29.8907  -21.4600  -36.3690 N   0  0  0  0  0  0  0  0  0  0  0  0
   29.3266  -22.2411  -37.3027 C   0  0  0  0  0  0  0  0  0  0  0  0
   28.3846  -21.7583  -38.2307 N   0  0  0  0  0  0  0  0  0  0  0  0
   28.0616  -20.3903  -38.3984 C   0  0  0  0  0  0  0  0  0  0  0  0
   27.7475  -19.5899  -37.3193 C   0  0  0  0  0  0  0  0  0  0  0  0
   27.4314  -18.2508  -37.4245 C   0  0  0  0  0  0  0  0  0  0  0  0
   27.0405  -17.2525  -36.0415 Cl  0  0  0  0  0  0  0  0  0  0  0  0
   27.4169  -17.6356  -38.6752 C   0  0  0  0  0  0  0  0  0  0  0  0
   27.1096  -16.3204  -38.7957 F   0  0  0  0  0  0  0  0  0  0  0  0
   27.7281  -18.4245  -39.7585 C   0  0  0  0  0  0  0  0  0  0  0  0
   28.0450  -19.7685  -39.6426 C   0  0  0  0  0  0  0  0  0  0  0  0
 20 19  2  0
 20 21  1  0
 18 13  1  0
 18 17  2  0
 18 19  1  0
 17 16  1  0
 17 22  1  0
 22 21  2  0
 22 23  1  0
 15 14  1  0
 30 28  1  0
 30 31  2  0
 31 24  1  0
 25 24  2  0
 25 26  1  0
 13 12  2  0
 16 11  2  0
  8  7  1  0
  8  9  1  0
  9 10  1  0
  2  1  1  0
  2  3  1  0
  4  3  1  0
  4  5  1  0
  7  6  1  0
  1  6  1  0
  5  6  1  0
 28 26  2  0
 28 29  1  0
 26 27  1  0
 24 23  1  0
 12 11  1  0
 12 14  1  0
 11 10  1  0
M  CHG  1   6   1
M  END
$$$$
