
     RDKit          3D

 31 34  0  0  0  0  0  0  0  0999 V2000
   27.9766  -29.5167  -42.6670 C   0  0  0  0  0  0  0  0  0  0  0  0
   27.7866  -30.8251  -43.3997 C   0  0  0  0  0  0  0  0  0  0  0  0
   26.4320  -31.2067  -43.4277 O   0  0  0  0  0  0  0  0  0  0  0  0
   25.6573  -30.1630  -43.9770 C   0  0  0  0  0  0  0  0  0  0  0  0
   25.7784  -28.8916  -43.1658 C   0  0  0  0  0  0  0  0  0  0  0  0
   26.7039  -29.1413  -42.0929 N   0  0  0  0  0  4  0  0  0  0  0  0
   26.8228  -28.0223  -41.1848 C   0  0  0  0  0  0  0  0  0  0  0  0
   27.8269  -28.2947  -40.0838 C   0  0  0  0  0  0  0  0  0  0  0  0
   27.9203  -27.0532  -39.2331 C   0  0  0  0  0  0  0  0  0  0  0  0
   29.0388  -27.0349  -38.4072 O   0  0  0  0  0  0  0  0  0  0  0  0
   29.4189  -26.0523  -37.5278 C   0  0  0  0  0  0  0  0  0  0  0  0
   30.2880  -26.4202  -36.5050 C   0  0  0  0  0  0  0  0  0  0  0  0
   30.7256  -25.5010  -35.5717 C   0  0  0  0  0  0  0  0  0  0  0  0
   30.7388  -27.7237  -36.3948 O   0  0  0  0  0  0  0  0  0  0  0  0
   31.6529  -28.0627  -35.3775 C   0  0  0  0  0  0  0  0  0  0  0  0
   28.9915  -24.7457  -37.6054 C   0  0  0  0  0  0  0  0  0  0  0  0
   29.4124  -23.8068  -36.6859 C   0  0  0  0  0  0  0  0  0  0  0  0
   30.2904  -24.1869  -35.6555 C   0  0  0  0  0  0  0  0  0  0  0  0
   30.6748  -23.2661  -34.7774 N   0  0  0  0  0  0  0  0  0  0  0  0
   30.2512  -21.9885  -34.8434 C   0  0  0  0  0  0  0  0  0  0  0  0
   29.4119  -21.6534  -35.8389 N   0  0  0  0  0  0  0  0  0  0  0  0
   28.9686  -22.5100  -36.7714 C   0  0  0  0  0  0  0  0  0  0  0  0
   28.0897  -22.1252  -37.8016 N   0  0  0  0  0  0  0  0  0  0  0  0
   27.7520  -20.7833  -38.0999 C   0  0  0  0  0  0  0  0  0  0  0  0
   28.5943  -19.7414  -37.7702 C   0  0  0  0  0  0  0  0  0  0  0  0
   28.3182  -18.4170  -38.0424 C   0  0  0  0  0  0  0  0  0  0  0  0
   29.4034  -17.1110  -37.6195 Cl  0  0  0  0  0  0  0  0  0  0  0  0
   27.1304  -18.0718  -38.6850 C   0  0  0  0  0  0  0  0  0  0  0  0
   26.8445  -16.7753  -38.9608 F   0  0  0  0  0  0  0  0  0  0  0  0
   26.2826  -19.1029  -39.0179 C   0  0  0  0  0  0  0  0  0  0  0  0
   26.5691  -20.4301  -38.7409 C   0  0  0  0  0  0  0  0  0  0  0  0
 20 19  2  0
 20 21  1  0
 18 13  1  0
 18 17  2  0
 18 19  1  0
 17 16  1  0
 17 22  1  0
 22 21  2  0
 22 23  1  0
 15 14  1  0
 30 28  1  0
 30 31  2  0
 31 24  1  0
 25 24  2  0
 25 26  1  0
 13 12  2  0
 16 11  2  0
  8  7  1  0
  8  9  1  0
  9 10  1  0
  2  1  1  0
  2  3  1  0
  4  3  1  0
  4  5  1  0
  7  6  1  0
  1  6  1  0
  5  6  1  0
 28 26  2  0
 28 29  1  0
 26 27  1  0
 24 23  1  0
 12 11  1  0
 12 14  1  0
 11 10  1  0
M  CHG  1   6   1
M  END
$$$$
