
     RDKit          3D

 31 34  0  0  0  0  0  0  0  0999 V2000
   26.5391  -29.5887  -42.0204 C   0  0  0  0  0  0  0  0  0  0  0  0
   25.6093  -30.7719  -41.8782 C   0  0  0  0  0  0  0  0  0  0  0  0
   24.2701  -30.4039  -42.1072 O   0  0  0  0  0  0  0  0  0  0  0  0
   24.1596  -29.7789  -43.3675 C   0  0  0  0  0  0  0  0  0  0  0  0
   25.0175  -28.5354  -43.4510 C   0  0  0  0  0  0  0  0  0  0  0  0
   25.7274  -28.4069  -42.2062 N   0  0  0  0  0  4  0  0  0  0  0  0
   26.5066  -27.1911  -42.1294 C   0  0  0  0  0  0  0  0  0  0  0  0
   27.7968  -27.3966  -41.3629 C   0  0  0  0  0  0  0  0  0  0  0  0
   27.7099  -26.5837  -40.0957 C   0  0  0  0  0  0  0  0  0  0  0  0
   28.8401  -26.6930  -39.2932 O   0  0  0  0  0  0  0  0  0  0  0  0
   29.2844  -25.8098  -38.3415 C   0  0  0  0  0  0  0  0  0  0  0  0
   30.1283  -26.3133  -37.3559 C   0  0  0  0  0  0  0  0  0  0  0  0
   30.6259  -25.5011  -36.3557 C   0  0  0  0  0  0  0  0  0  0  0  0
   30.4926  -27.6481  -37.3512 O   0  0  0  0  0  0  0  0  0  0  0  0
   31.4085  -28.1184  -36.3893 C   0  0  0  0  0  0  0  0  0  0  0  0
   28.9437  -24.4761  -38.3136 C   0  0  0  0  0  0  0  0  0  0  0  0
   29.4259  -23.6421  -37.3256 C   0  0  0  0  0  0  0  0  0  0  0  0
   30.2778  -24.1589  -36.3334 C   0  0  0  0  0  0  0  0  0  0  0  0
   30.7224  -23.3373  -35.3878 N   0  0  0  0  0  0  0  0  0  0  0  0
   30.3835  -22.0335  -35.3507 C   0  0  0  0  0  0  0  0  0  0  0  0
   29.5673  -21.5668  -36.3118 N   0  0  0  0  0  0  0  0  0  0  0  0
   29.0681  -22.3164  -37.3062 C   0  0  0  0  0  0  0  0  0  0  0  0
   28.2156  -21.7950  -38.2978 N   0  0  0  0  0  0  0  0  0  0  0  0
   27.9909  -20.4132  -38.5080 C   0  0  0  0  0  0  0  0  0  0  0  0
   29.0315  -19.5073  -38.4956 C   0  0  0  0  0  0  0  0  0  0  0  0
   28.8705  -18.1521  -38.7005 C   0  0  0  0  0  0  0  0  0  0  0  0
   30.2055  -17.0209  -38.6853 Cl  0  0  0  0  0  0  0  0  0  0  0  0
   27.5996  -17.6304  -38.9357 C   0  0  0  0  0  0  0  0  0  0  0  0
   27.4243  -16.3013  -39.1401 F   0  0  0  0  0  0  0  0  0  0  0  0
   26.5543  -18.5248  -38.9497 C   0  0  0  0  0  0  0  0  0  0  0  0
   26.7262  -19.8842  -38.7435 C   0  0  0  0  0  0  0  0  0  0  0  0
 20 19  2  0
 20 21  1  0
 18 13  1  0
 18 17  2  0
 18 19  1  0
 17 16  1  0
 17 22  1  0
 22 21  2  0
 22 23  1  0
 15 14  1  0
 30 28  1  0
 30 31  2  0
 31 24  1  0
 25 24  2  0
 25 26  1  0
 13 12  2  0
 16 11  2  0
  8  7  1  0
  8  9  1  0
  9 10  1  0
  2  1  1  0
  2  3  1  0
  4  3  1  0
  4  5  1  0
  7  6  1  0
  1  6  1  0
  5  6  1  0
 28 26  2  0
 28 29  1  0
 26 27  1  0
 24 23  1  0
 12 11  1  0
 12 14  1  0
 11 10  1  0
M  CHG  1   6   1
M  END
$$$$
