
     RDKit          3D

 31 34  0  0  0  0  0  0  0  0999 V2000
   26.3063  -30.1810  -41.7901 C   0  0  0  0  0  0  0  0  0  0  0  0
   24.9414  -30.7148  -42.1600 C   0  0  0  0  0  0  0  0  0  0  0  0
   24.1980  -29.7660  -42.8869 O   0  0  0  0  0  0  0  0  0  0  0  0
   24.9373  -29.3473  -44.0135 C   0  0  0  0  0  0  0  0  0  0  0  0
   26.2542  -28.7181  -43.6145 C   0  0  0  0  0  0  0  0  0  0  0  0
   26.3594  -28.7902  -42.1814 N   0  0  0  0  0  4  0  0  0  0  0  0
   27.5376  -28.1239  -41.6727 C   0  0  0  0  0  0  0  0  0  0  0  0
   27.7537  -28.4077  -40.2005 C   0  0  0  0  0  0  0  0  0  0  0  0
   27.8416  -27.0819  -39.4876 C   0  0  0  0  0  0  0  0  0  0  0  0
   29.1132  -26.8031  -38.9989 O   0  0  0  0  0  0  0  0  0  0  0  0
   29.4542  -25.9486  -37.9807 C   0  0  0  0  0  0  0  0  0  0  0  0
   30.1749  -26.4861  -36.9183 C   0  0  0  0  0  0  0  0  0  0  0  0
   30.5625  -25.7045  -35.8476 C   0  0  0  0  0  0  0  0  0  0  0  0
   30.5234  -27.8250  -36.9058 O   0  0  0  0  0  0  0  0  0  0  0  0
   31.5285  -28.2767  -36.0276 C   0  0  0  0  0  0  0  0  0  0  0  0
   29.1253  -24.6118  -37.9580 C   0  0  0  0  0  0  0  0  0  0  0  0
   29.4993  -23.8079  -36.9007 C   0  0  0  0  0  0  0  0  0  0  0  0
   30.2270  -24.3590  -35.8312 C   0  0  0  0  0  0  0  0  0  0  0  0
   30.5684  -23.5659  -34.8206 N   0  0  0  0  0  0  0  0  0  0  0  0
   30.2400  -22.2593  -34.7894 C   0  0  0  0  0  0  0  0  0  0  0  0
   29.5437  -21.7595  -35.8253 N   0  0  0  0  0  0  0  0  0  0  0  0
   29.1543  -22.4787  -36.8888 C   0  0  0  0  0  0  0  0  0  0  0  0
   28.4259  -21.9231  -37.9576 N   0  0  0  0  0  0  0  0  0  0  0  0
   28.0186  -20.5690  -38.0243 C   0  0  0  0  0  0  0  0  0  0  0  0
   28.9359  -19.5511  -38.1863 C   0  0  0  0  0  0  0  0  0  0  0  0
   28.5941  -18.2164  -38.2638 C   0  0  0  0  0  0  0  0  0  0  0  0
   29.7739  -16.9413  -38.4741 Cl  0  0  0  0  0  0  0  0  0  0  0  0
   27.2564  -17.8347  -38.1765 C   0  0  0  0  0  0  0  0  0  0  0  0
   26.9036  -16.5275  -38.2519 F   0  0  0  0  0  0  0  0  0  0  0  0
   26.3329  -18.8416  -38.0143 C   0  0  0  0  0  0  0  0  0  0  0  0
   26.6860  -20.1794  -37.9384 C   0  0  0  0  0  0  0  0  0  0  0  0
 20 19  2  0
 20 21  1  0
 18 13  1  0
 18 17  2  0
 18 19  1  0
 17 16  1  0
 17 22  1  0
 22 21  2  0
 22 23  1  0
 15 14  1  0
 30 28  1  0
 30 31  2  0
 31 24  1  0
 25 24  2  0
 25 26  1  0
 13 12  2  0
 16 11  2  0
  8  7  1  0
  8  9  1  0
  9 10  1  0
  2  1  1  0
  2  3  1  0
  4  3  1  0
  4  5  1  0
  7  6  1  0
  1  6  1  0
  5  6  1  0
 28 26  2  0
 28 29  1  0
 26 27  1  0
 24 23  1  0
 12 11  1  0
 12 14  1  0
 11 10  1  0
M  CHG  1   6   1
M  END
$$$$
