
     RDKit          3D

 31 34  0  0  0  0  0  0  0  0999 V2000
   25.6167  -27.3417  -43.6010 C   0  0  0  0  0  0  0  0  0  0  0  0
   24.3008  -26.6738  -43.9280 C   0  0  0  0  0  0  0  0  0  0  0  0
   24.1320  -25.4839  -43.1951 O   0  0  0  0  0  0  0  0  0  0  0  0
   25.2374  -24.6338  -43.4112 C   0  0  0  0  0  0  0  0  0  0  0  0
   26.5335  -25.2823  -42.9770 C   0  0  0  0  0  0  0  0  0  0  0  0
   26.2274  -26.6097  -42.5140 N   0  0  0  0  0  4  0  0  0  0  0  0
   27.3812  -27.2941  -41.9744 C   0  0  0  0  0  0  0  0  0  0  0  0
   28.1602  -26.4158  -41.0171 C   0  0  0  0  0  0  0  0  0  0  0  0
   27.7172  -26.7602  -39.6175 C   0  0  0  0  0  0  0  0  0  0  0  0
   28.7749  -26.9217  -38.7295 O   0  0  0  0  0  0  0  0  0  0  0  0
   29.3007  -25.9903  -37.8697 C   0  0  0  0  0  0  0  0  0  0  0  0
   30.2447  -26.4393  -36.9509 C   0  0  0  0  0  0  0  0  0  0  0  0
   30.8292  -25.5762  -36.0448 C   0  0  0  0  0  0  0  0  0  0  0  0
   30.6244  -27.7695  -36.9199 O   0  0  0  0  0  0  0  0  0  0  0  0
   31.1017  -28.3315  -35.7191 C   0  0  0  0  0  0  0  0  0  0  0  0
   28.9478  -24.6595  -37.8705 C   0  0  0  0  0  0  0  0  0  0  0  0
   29.5155  -23.7753  -36.9760 C   0  0  0  0  0  0  0  0  0  0  0  0
   30.4684  -24.2372  -36.0509 C   0  0  0  0  0  0  0  0  0  0  0  0
   30.9946  -23.3678  -35.1942 N   0  0  0  0  0  0  0  0  0  0  0  0
   30.6448  -22.0664  -35.1847 C   0  0  0  0  0  0  0  0  0  0  0  0
   29.7312  -21.6527  -36.0803 N   0  0  0  0  0  0  0  0  0  0  0  0
   29.1449  -22.4530  -36.9834 C   0  0  0  0  0  0  0  0  0  0  0  0
   28.1915  -21.9865  -37.9081 N   0  0  0  0  0  0  0  0  0  0  0  0
   27.9243  -20.6182  -38.1539 C   0  0  0  0  0  0  0  0  0  0  0  0
   28.9323  -19.6762  -38.1365 C   0  0  0  0  0  0  0  0  0  0  0  0
   28.7296  -18.3322  -38.3750 C   0  0  0  0  0  0  0  0  0  0  0  0
   30.0237  -17.1546  -38.3526 Cl  0  0  0  0  0  0  0  0  0  0  0  0
   27.4475  -17.8605  -38.6520 C   0  0  0  0  0  0  0  0  0  0  0  0
   27.2314  -16.5431  -38.8898 F   0  0  0  0  0  0  0  0  0  0  0  0
   26.4345  -18.7912  -38.6714 C   0  0  0  0  0  0  0  0  0  0  0  0
   26.6482  -20.1391  -38.4313 C   0  0  0  0  0  0  0  0  0  0  0  0
 20 19  2  0
 20 21  1  0
 18 13  1  0
 18 17  2  0
 18 19  1  0
 17 16  1  0
 17 22  1  0
 22 21  2  0
 22 23  1  0
 15 14  1  0
 30 28  1  0
 30 31  2  0
 31 24  1  0
 25 24  2  0
 25 26  1  0
 13 12  2  0
 16 11  2  0
  8  7  1  0
  8  9  1  0
  9 10  1  0
  2  1  1  0
  2  3  1  0
  4  3  1  0
  4  5  1  0
  7  6  1  0
  1  6  1  0
  5  6  1  0
 28 26  2  0
 28 29  1  0
 26 27  1  0
 24 23  1  0
 12 11  1  0
 12 14  1  0
 11 10  1  0
M  CHG  1   6   1
M  END
$$$$
