
     RDKit          3D

 31 34  0  0  0  0  0  0  0  0999 V2000
   27.1382  -28.7417  -43.9356 C   0  0  0  0  0  0  0  0  0  0  0  0
   26.0002  -29.5127  -44.5642 C   0  0  0  0  0  0  0  0  0  0  0  0
   24.8390  -29.4537  -43.7706 O   0  0  0  0  0  0  0  0  0  0  0  0
   24.5046  -28.1060  -43.5202 C   0  0  0  0  0  0  0  0  0  0  0  0
   25.6164  -27.3806  -42.7942 C   0  0  0  0  0  0  0  0  0  0  0  0
   26.7073  -28.3035  -42.6270 N   0  0  0  0  0  4  0  0  0  0  0  0
   27.7945  -27.7499  -41.8507 C   0  0  0  0  0  0  0  0  0  0  0  0
   28.0042  -28.5069  -40.5555 C   0  0  0  0  0  0  0  0  0  0  0  0
   28.0099  -27.4997  -39.4332 C   0  0  0  0  0  0  0  0  0  0  0  0
   29.2247  -26.8378  -39.2939 O   0  0  0  0  0  0  0  0  0  0  0  0
   29.5753  -25.9152  -38.3404 C   0  0  0  0  0  0  0  0  0  0  0  0
   30.3543  -26.3669  -37.2793 C   0  0  0  0  0  0  0  0  0  0  0  0
   30.7560  -25.5124  -36.2712 C   0  0  0  0  0  0  0  0  0  0  0  0
   30.7487  -27.6910  -37.2049 O   0  0  0  0  0  0  0  0  0  0  0  0
   31.6234  -28.1025  -36.1798 C   0  0  0  0  0  0  0  0  0  0  0  0
   29.2020  -24.5905  -38.3804 C   0  0  0  0  0  0  0  0  0  0  0  0
   29.5888  -23.7151  -37.3863 C   0  0  0  0  0  0  0  0  0  0  0  0
   30.3756  -24.1797  -36.3176 C   0  0  0  0  0  0  0  0  0  0  0  0
   30.7284  -23.3188  -35.3682 N   0  0  0  0  0  0  0  0  0  0  0  0
   30.3569  -22.0237  -35.3979 C   0  0  0  0  0  0  0  0  0  0  0  0
   29.6045  -21.6074  -36.4315 N   0  0  0  0  0  0  0  0  0  0  0  0
   29.1993  -22.3992  -37.4359 C   0  0  0  0  0  0  0  0  0  0  0  0
   28.4117  -21.9300  -38.5042 N   0  0  0  0  0  0  0  0  0  0  0  0
   28.1295  -20.5639  -38.7450 C   0  0  0  0  0  0  0  0  0  0  0  0
   29.1198  -19.6051  -38.6831 C   0  0  0  0  0  0  0  0  0  0  0  0
   28.9022  -18.2622  -38.9145 C   0  0  0  0  0  0  0  0  0  0  0  0
   30.1743  -17.0633  -38.8353 Cl  0  0  0  0  0  0  0  0  0  0  0  0
   27.6224  -17.8093  -39.2307 C   0  0  0  0  0  0  0  0  0  0  0  0
   27.3919  -16.4932  -39.4621 F   0  0  0  0  0  0  0  0  0  0  0  0
   26.6269  -18.7568  -39.2946 C   0  0  0  0  0  0  0  0  0  0  0  0
   26.8556  -20.1034  -39.0612 C   0  0  0  0  0  0  0  0  0  0  0  0
 20 19  2  0
 20 21  1  0
 18 13  1  0
 18 17  2  0
 18 19  1  0
 17 16  1  0
 17 22  1  0
 22 21  2  0
 22 23  1  0
 15 14  1  0
 30 28  1  0
 30 31  2  0
 31 24  1  0
 25 24  2  0
 25 26  1  0
 13 12  2  0
 16 11  2  0
  8  7  1  0
  8  9  1  0
  9 10  1  0
  2  1  1  0
  2  3  1  0
  4  3  1  0
  4  5  1  0
  7  6  1  0
  1  6  1  0
  5  6  1  0
 28 26  2  0
 28 29  1  0
 26 27  1  0
 24 23  1  0
 12 11  1  0
 12 14  1  0
 11 10  1  0
M  CHG  1   6   1
M  END
$$$$
