
     RDKit          3D

 31 34  0  0  0  0  0  0  0  0999 V2000
   25.8992  -28.7013  -42.8998 C   0  0  0  0  0  0  0  0  0  0  0  0
   25.6379  -29.6249  -44.0674 C   0  0  0  0  0  0  0  0  0  0  0  0
   25.6666  -30.9754  -43.6712 O   0  0  0  0  0  0  0  0  0  0  0  0
   24.7589  -31.1768  -42.6098 C   0  0  0  0  0  0  0  0  0  0  0  0
   25.1027  -30.3201  -41.4111 C   0  0  0  0  0  0  0  0  0  0  0  0
   26.2453  -29.5174  -41.7577 N   0  0  0  0  0  4  0  0  0  0  0  0
   26.7312  -28.7272  -40.6485 C   0  0  0  0  0  0  0  0  0  0  0  0
   27.9143  -27.8682  -41.0445 C   0  0  0  0  0  0  0  0  0  0  0  0
   27.9661  -26.6966  -40.0966 C   0  0  0  0  0  0  0  0  0  0  0  0
   28.8190  -26.8993  -39.0173 O   0  0  0  0  0  0  0  0  0  0  0  0
   29.2629  -25.9702  -38.1102 C   0  0  0  0  0  0  0  0  0  0  0  0
   30.1017  -26.4255  -37.0972 C   0  0  0  0  0  0  0  0  0  0  0  0
   30.5985  -25.5650  -36.1378 C   0  0  0  0  0  0  0  0  0  0  0  0
   30.4615  -27.7595  -37.0232 O   0  0  0  0  0  0  0  0  0  0  0  0
   31.1750  -28.2290  -35.9025 C   0  0  0  0  0  0  0  0  0  0  0  0
   28.9265  -24.6357  -38.1513 C   0  0  0  0  0  0  0  0  0  0  0  0
   29.4081  -23.7541  -37.2053 C   0  0  0  0  0  0  0  0  0  0  0  0
   30.2548  -24.2223  -36.1851 C   0  0  0  0  0  0  0  0  0  0  0  0
   30.6988  -23.3551  -35.2809 N   0  0  0  0  0  0  0  0  0  0  0  0
   30.3641  -22.0500  -35.3114 C   0  0  0  0  0  0  0  0  0  0  0  0
   29.5528  -21.6303  -36.2980 N   0  0  0  0  0  0  0  0  0  0  0  0
   29.0546  -22.4280  -37.2548 C   0  0  0  0  0  0  0  0  0  0  0  0
   28.2073  -21.9550  -38.2747 N   0  0  0  0  0  0  0  0  0  0  0  0
   27.9289  -20.5867  -38.5075 C   0  0  0  0  0  0  0  0  0  0  0  0
   28.9387  -19.6479  -38.5590 C   0  0  0  0  0  0  0  0  0  0  0  0
   28.7250  -18.3040  -38.7885 C   0  0  0  0  0  0  0  0  0  0  0  0
   30.0214  -17.1307  -38.8545 Cl  0  0  0  0  0  0  0  0  0  0  0  0
   27.4290  -17.8291  -38.9831 C   0  0  0  0  0  0  0  0  0  0  0  0
   27.2019  -16.5118  -39.2109 F   0  0  0  0  0  0  0  0  0  0  0  0
   26.4141  -18.7566  -38.9333 C   0  0  0  0  0  0  0  0  0  0  0  0
   26.6389  -20.1043  -38.7029 C   0  0  0  0  0  0  0  0  0  0  0  0
 20 19  2  0
 20 21  1  0
 18 13  1  0
 18 17  2  0
 18 19  1  0
 17 16  1  0
 17 22  1  0
 22 21  2  0
 22 23  1  0
 15 14  1  0
 30 28  1  0
 30 31  2  0
 31 24  1  0
 25 24  2  0
 25 26  1  0
 13 12  2  0
 16 11  2  0
  8  7  1  0
  8  9  1  0
  9 10  1  0
  2  1  1  0
  2  3  1  0
  4  3  1  0
  4  5  1  0
  7  6  1  0
  1  6  1  0
  5  6  1  0
 28 26  2  0
 28 29  1  0
 26 27  1  0
 24 23  1  0
 12 11  1  0
 12 14  1  0
 11 10  1  0
M  CHG  1   6   1
M  END
$$$$
