
     RDKit          3D

 31 34  0  0  0  0  0  0  0  0999 V2000
   25.6422  -29.7425  -41.4345 C   0  0  0  0  0  0  0  0  0  0  0  0
   24.2893  -29.8709  -42.0963 C   0  0  0  0  0  0  0  0  0  0  0  0
   23.7521  -28.6100  -42.4172 O   0  0  0  0  0  0  0  0  0  0  0  0
   24.6733  -27.8899  -43.2070 C   0  0  0  0  0  0  0  0  0  0  0  0
   25.9850  -27.6798  -42.4828 C   0  0  0  0  0  0  0  0  0  0  0  0
   25.8924  -28.3370  -41.2063 N   0  0  0  0  0  4  0  0  0  0  0  0
   27.0569  -28.1166  -40.3778 C   0  0  0  0  0  0  0  0  0  0  0  0
   28.0077  -27.1137  -40.9979 C   0  0  0  0  0  0  0  0  0  0  0  0
   28.1622  -25.9699  -40.0276 C   0  0  0  0  0  0  0  0  0  0  0  0
   28.9409  -26.2886  -38.9207 O   0  0  0  0  0  0  0  0  0  0  0  0
   29.4477  -25.4334  -37.9746 C   0  0  0  0  0  0  0  0  0  0  0  0
   30.2224  -25.9951  -36.9640 C   0  0  0  0  0  0  0  0  0  0  0  0
   30.7746  -25.2148  -35.9672 C   0  0  0  0  0  0  0  0  0  0  0  0
   30.4606  -27.3577  -36.9303 O   0  0  0  0  0  0  0  0  0  0  0  0
   31.5612  -27.8563  -36.2053 C   0  0  0  0  0  0  0  0  0  0  0  0
   29.2322  -24.0735  -37.9752 C   0  0  0  0  0  0  0  0  0  0  0  0
   29.7715  -23.2702  -36.9912 C   0  0  0  0  0  0  0  0  0  0  0  0
   30.5527  -23.8459  -35.9737 C   0  0  0  0  0  0  0  0  0  0  0  0
   31.0542  -23.0522  -35.0328 N   0  0  0  0  0  0  0  0  0  0  0  0
   30.8376  -21.7221  -35.0236 C   0  0  0  0  0  0  0  0  0  0  0  0
   30.0866  -21.1990  -36.0086 N   0  0  0  0  0  0  0  0  0  0  0  0
   29.5384  -21.9169  -37.0007 C   0  0  0  0  0  0  0  0  0  0  0  0
   28.7569  -21.3365  -38.0177 N   0  0  0  0  0  0  0  0  0  0  0  0
   28.5588  -19.9434  -38.1721 C   0  0  0  0  0  0  0  0  0  0  0  0
   27.7914  -19.2246  -37.2787 C   0  0  0  0  0  0  0  0  0  0  0  0
   27.5705  -17.8661  -37.3776 C   0  0  0  0  0  0  0  0  0  0  0  0
   26.5971  -16.9729  -36.2301 Cl  0  0  0  0  0  0  0  0  0  0  0  0
   28.1369  -17.1438  -38.4266 C   0  0  0  0  0  0  0  0  0  0  0  0
   27.9306  -15.8082  -38.5376 F   0  0  0  0  0  0  0  0  0  0  0  0
   28.9038  -17.8506  -39.3239 C   0  0  0  0  0  0  0  0  0  0  0  0
   29.1204  -19.2150  -39.2156 C   0  0  0  0  0  0  0  0  0  0  0  0
 20 19  2  0
 20 21  1  0
 18 13  1  0
 18 17  2  0
 18 19  1  0
 17 16  1  0
 17 22  1  0
 22 21  2  0
 22 23  1  0
 15 14  1  0
 30 28  1  0
 30 31  2  0
 31 24  1  0
 25 24  2  0
 25 26  1  0
 13 12  2  0
 16 11  2  0
  8  7  1  0
  8  9  1  0
  9 10  1  0
  2  1  1  0
  2  3  1  0
  4  3  1  0
  4  5  1  0
  7  6  1  0
  1  6  1  0
  5  6  1  0
 28 26  2  0
 28 29  1  0
 26 27  1  0
 24 23  1  0
 12 11  1  0
 12 14  1  0
 11 10  1  0
M  CHG  1   6   1
M  END
$$$$
