
     RDKit          3D

 31 34  0  0  0  0  0  0  0  0999 V2000
   27.3120  -29.2342  -43.3722 C   0  0  0  0  0  0  0  0  0  0  0  0
   27.3205  -30.5394  -44.1345 C   0  0  0  0  0  0  0  0  0  0  0  0
   26.4324  -31.4723  -43.5666 O   0  0  0  0  0  0  0  0  0  0  0  0
   25.1428  -30.9063  -43.4797 C   0  0  0  0  0  0  0  0  0  0  0  0
   25.1372  -29.6591  -42.6231 C   0  0  0  0  0  0  0  0  0  0  0  0
   26.4891  -29.4126  -42.1969 N   0  0  0  0  0  4  0  0  0  0  0  0
   26.5929  -28.2972  -41.2826 C   0  0  0  0  0  0  0  0  0  0  0  0
   27.8693  -28.3528  -40.4689 C   0  0  0  0  0  0  0  0  0  0  0  0
   28.0138  -27.0327  -39.7544 C   0  0  0  0  0  0  0  0  0  0  0  0
   29.2292  -26.8949  -39.0934 O   0  0  0  0  0  0  0  0  0  0  0  0
   29.5669  -25.9689  -38.1385 C   0  0  0  0  0  0  0  0  0  0  0  0
   30.3852  -26.4015  -37.0992 C   0  0  0  0  0  0  0  0  0  0  0  0
   30.7777  -25.5423  -36.0916 C   0  0  0  0  0  0  0  0  0  0  0  0
   30.8292  -27.7109  -37.0469 O   0  0  0  0  0  0  0  0  0  0  0  0
   31.6041  -28.1422  -35.9519 C   0  0  0  0  0  0  0  0  0  0  0  0
   29.1447  -24.6585  -38.1570 C   0  0  0  0  0  0  0  0  0  0  0  0
   29.5212  -23.7788  -37.1628 C   0  0  0  0  0  0  0  0  0  0  0  0
   30.3480  -24.2240  -36.1162 C   0  0  0  0  0  0  0  0  0  0  0  0
   30.6900  -23.3596  -35.1661 N   0  0  0  0  0  0  0  0  0  0  0  0
   30.2711  -22.0788  -35.1746 C   0  0  0  0  0  0  0  0  0  0  0  0
   29.4812  -21.6808  -36.1873 N   0  0  0  0  0  0  0  0  0  0  0  0
   29.0830  -22.4775  -37.1906 C   0  0  0  0  0  0  0  0  0  0  0  0
   28.2554  -22.0277  -38.2367 N   0  0  0  0  0  0  0  0  0  0  0  0
   27.9134  -20.6713  -38.4539 C   0  0  0  0  0  0  0  0  0  0  0  0
   28.8727  -19.6797  -38.4470 C   0  0  0  0  0  0  0  0  0  0  0  0
   28.5965  -18.3444  -38.6588 C   0  0  0  0  0  0  0  0  0  0  0  0
   29.8299  -17.1031  -38.6503 Cl  0  0  0  0  0  0  0  0  0  0  0  0
   27.2855  -17.9343  -38.8957 C   0  0  0  0  0  0  0  0  0  0  0  0
   26.9972  -16.6262  -39.1069 F   0  0  0  0  0  0  0  0  0  0  0  0
   26.3205  -18.9148  -38.9043 C   0  0  0  0  0  0  0  0  0  0  0  0
   26.6080  -20.2535  -38.6912 C   0  0  0  0  0  0  0  0  0  0  0  0
 20 19  2  0
 20 21  1  0
 18 13  1  0
 18 17  2  0
 18 19  1  0
 17 16  1  0
 17 22  1  0
 22 21  2  0
 22 23  1  0
 15 14  1  0
 30 28  1  0
 30 31  2  0
 31 24  1  0
 25 24  2  0
 25 26  1  0
 13 12  2  0
 16 11  2  0
  8  7  1  0
  8  9  1  0
  9 10  1  0
  2  1  1  0
  2  3  1  0
  4  3  1  0
  4  5  1  0
  7  6  1  0
  1  6  1  0
  5  6  1  0
 28 26  2  0
 28 29  1  0
 26 27  1  0
 24 23  1  0
 12 11  1  0
 12 14  1  0
 11 10  1  0
M  CHG  1   6   1
M  END
$$$$
