
     RDKit          3D

 31 34  0  0  0  0  0  0  0  0999 V2000
   25.5565  -28.1134  -42.6910 C   0  0  0  0  0  0  0  0  0  0  0  0
   25.0183  -28.5038  -44.0485 C   0  0  0  0  0  0  0  0  0  0  0  0
   26.0284  -28.4799  -45.0285 O   0  0  0  0  0  0  0  0  0  0  0  0
   27.1044  -29.2959  -44.6193 C   0  0  0  0  0  0  0  0  0  0  0  0
   27.6977  -28.8226  -43.3104 C   0  0  0  0  0  0  0  0  0  0  0  0
   26.9288  -27.6920  -42.8628 N   0  0  0  0  0  4  0  0  0  0  0  0
   27.4686  -27.0870  -41.6654 C   0  0  0  0  0  0  0  0  0  0  0  0
   27.3684  -28.0140  -40.4717 C   0  0  0  0  0  0  0  0  0  0  0  0
   27.4993  -27.1725  -39.2272 C   0  0  0  0  0  0  0  0  0  0  0  0
   28.8139  -27.0231  -38.7997 O   0  0  0  0  0  0  0  0  0  0  0  0
   29.3400  -26.0117  -38.0358 C   0  0  0  0  0  0  0  0  0  0  0  0
   30.3315  -26.3586  -37.1227 C   0  0  0  0  0  0  0  0  0  0  0  0
   30.9201  -25.4099  -36.3098 C   0  0  0  0  0  0  0  0  0  0  0  0
   30.7556  -27.6703  -37.0038 O   0  0  0  0  0  0  0  0  0  0  0  0
   31.5758  -28.0434  -35.9205 C   0  0  0  0  0  0  0  0  0  0  0  0
   28.9436  -24.6962  -38.1257 C   0  0  0  0  0  0  0  0  0  0  0  0
   29.5145  -23.7279  -37.3253 C   0  0  0  0  0  0  0  0  0  0  0  0
   30.5154  -24.0869  -36.4053 C   0  0  0  0  0  0  0  0  0  0  0  0
   31.0438  -23.1374  -35.6398 N   0  0  0  0  0  0  0  0  0  0  0  0
   30.6520  -21.8504  -35.7173 C   0  0  0  0  0  0  0  0  0  0  0  0
   29.6929  -21.5359  -36.6056 N   0  0  0  0  0  0  0  0  0  0  0  0
   29.1005  -22.4220  -37.4204 C   0  0  0  0  0  0  0  0  0  0  0  0
   28.0988  -22.0583  -38.3403 N   0  0  0  0  0  0  0  0  0  0  0  0
   27.8810  -20.7368  -38.7987 C   0  0  0  0  0  0  0  0  0  0  0  0
   28.4714  -19.6556  -38.1773 C   0  0  0  0  0  0  0  0  0  0  0  0
   28.2988  -18.3486  -38.5853 C   0  0  0  0  0  0  0  0  0  0  0  0
   29.0613  -16.9921  -37.7851 Cl  0  0  0  0  0  0  0  0  0  0  0  0
   27.4885  -18.0639  -39.6830 C   0  0  0  0  0  0  0  0  0  0  0  0
   27.3094  -16.7853  -40.0976 F   0  0  0  0  0  0  0  0  0  0  0  0
   26.8941  -19.1346  -40.3101 C   0  0  0  0  0  0  0  0  0  0  0  0
   27.0742  -20.4438  -39.8933 C   0  0  0  0  0  0  0  0  0  0  0  0
 20 19  2  0
 20 21  1  0
 18 13  1  0
 18 17  2  0
 18 19  1  0
 17 16  1  0
 17 22  1  0
 22 21  2  0
 22 23  1  0
 15 14  1  0
 30 28  1  0
 30 31  2  0
 31 24  1  0
 25 24  2  0
 25 26  1  0
 13 12  2  0
 16 11  2  0
  8  7  1  0
  8  9  1  0
  9 10  1  0
  2  1  1  0
  2  3  1  0
  4  3  1  0
  4  5  1  0
  7  6  1  0
  1  6  1  0
  5  6  1  0
 28 26  2  0
 28 29  1  0
 26 27  1  0
 24 23  1  0
 12 11  1  0
 12 14  1  0
 11 10  1  0
M  CHG  1   6   1
M  END
$$$$
