
     RDKit          3D

 31 34  0  0  0  0  0  0  0  0999 V2000
   25.0397  -28.0464  -42.4042 C   0  0  0  0  0  0  0  0  0  0  0  0
   24.4011  -27.2564  -43.5235 C   0  0  0  0  0  0  0  0  0  0  0  0
   25.3653  -26.7796  -44.4314 O   0  0  0  0  0  0  0  0  0  0  0  0
   26.1424  -27.8574  -44.9064 C   0  0  0  0  0  0  0  0  0  0  0  0
   26.8584  -28.5687  -43.7792 C   0  0  0  0  0  0  0  0  0  0  0  0
   26.4743  -27.9355  -42.5457 N   0  0  0  0  0  4  0  0  0  0  0  0
   27.1791  -28.4673  -41.4006 C   0  0  0  0  0  0  0  0  0  0  0  0
   28.1872  -27.4792  -40.8510 C   0  0  0  0  0  0  0  0  0  0  0  0
   27.6615  -26.9771  -39.5298 C   0  0  0  0  0  0  0  0  0  0  0  0
   28.5602  -27.1416  -38.4817 O   0  0  0  0  0  0  0  0  0  0  0  0
   29.1614  -26.1647  -37.7283 C   0  0  0  0  0  0  0  0  0  0  0  0
   30.1670  -26.5683  -36.8549 C   0  0  0  0  0  0  0  0  0  0  0  0
   30.8294  -25.6575  -36.0553 C   0  0  0  0  0  0  0  0  0  0  0  0
   30.5315  -27.8999  -36.7632 O   0  0  0  0  0  0  0  0  0  0  0  0
   31.4699  -28.3016  -35.7918 C   0  0  0  0  0  0  0  0  0  0  0  0
   28.8259  -24.8309  -37.7920 C   0  0  0  0  0  0  0  0  0  0  0  0
   29.4709  -23.8996  -37.0042 C   0  0  0  0  0  0  0  0  0  0  0  0
   30.4856  -24.3158  -36.1243 C   0  0  0  0  0  0  0  0  0  0  0  0
   31.0862  -23.4009  -35.3700 N   0  0  0  0  0  0  0  0  0  0  0  0
   30.7542  -22.0958  -35.4217 C   0  0  0  0  0  0  0  0  0  0  0  0
   29.7802  -21.7264  -36.2718 N   0  0  0  0  0  0  0  0  0  0  0  0
   29.1171  -22.5744  -37.0725 C   0  0  0  0  0  0  0  0  0  0  0  0
   28.1019  -22.1534  -37.9523 N   0  0  0  0  0  0  0  0  0  0  0  0
   27.7867  -20.7984  -38.2138 C   0  0  0  0  0  0  0  0  0  0  0  0
   28.7610  -19.8214  -38.2085 C   0  0  0  0  0  0  0  0  0  0  0  0
   28.5111  -18.4882  -38.4625 C   0  0  0  0  0  0  0  0  0  0  0  0
   29.7632  -17.2659  -38.4553 Cl  0  0  0  0  0  0  0  0  0  0  0  0
   27.2131  -18.0651  -38.7435 C   0  0  0  0  0  0  0  0  0  0  0  0
   26.9507  -16.7589  -38.9963 F   0  0  0  0  0  0  0  0  0  0  0  0
   26.2333  -19.0309  -38.7508 C   0  0  0  0  0  0  0  0  0  0  0  0
   26.4944  -20.3676  -38.4952 C   0  0  0  0  0  0  0  0  0  0  0  0
 20 19  2  0
 20 21  1  0
 18 13  1  0
 18 17  2  0
 18 19  1  0
 17 16  1  0
 17 22  1  0
 22 21  2  0
 22 23  1  0
 15 14  1  0
 30 28  1  0
 30 31  2  0
 31 24  1  0
 25 24  2  0
 25 26  1  0
 13 12  2  0
 16 11  2  0
  8  7  1  0
  8  9  1  0
  9 10  1  0
  2  1  1  0
  2  3  1  0
  4  3  1  0
  4  5  1  0
  7  6  1  0
  1  6  1  0
  5  6  1  0
 28 26  2  0
 28 29  1  0
 26 27  1  0
 24 23  1  0
 12 11  1  0
 12 14  1  0
 11 10  1  0
M  CHG  1   6   1
M  END
$$$$
