
     RDKit          3D

 31 34  0  0  0  0  0  0  0  0999 V2000
   25.1501  -27.9420  -43.3740 C   0  0  0  0  0  0  0  0  0  0  0  0
   24.7243  -28.9872  -44.3795 C   0  0  0  0  0  0  0  0  0  0  0  0
   25.7035  -29.9876  -44.5272 O   0  0  0  0  0  0  0  0  0  0  0  0
   26.0064  -30.5435  -43.2661 C   0  0  0  0  0  0  0  0  0  0  0  0
   26.5326  -29.4982  -42.3071 C   0  0  0  0  0  0  0  0  0  0  0  0
   26.5127  -28.2296  -42.9856 N   0  0  0  0  0  4  0  0  0  0  0  0
   27.0928  -27.1647  -42.1979 C   0  0  0  0  0  0  0  0  0  0  0  0
   27.3899  -27.6099  -40.7809 C   0  0  0  0  0  0  0  0  0  0  0  0
   28.5530  -26.7917  -40.2792 C   0  0  0  0  0  0  0  0  0  0  0  0
   28.7936  -26.9533  -38.9193 O   0  0  0  0  0  0  0  0  0  0  0  0
   29.2504  -26.0145  -38.0287 C   0  0  0  0  0  0  0  0  0  0  0  0
   30.0916  -26.4615  -37.0140 C   0  0  0  0  0  0  0  0  0  0  0  0
   30.6009  -25.5910  -36.0704 C   0  0  0  0  0  0  0  0  0  0  0  0
   30.4413  -27.7971  -36.9225 O   0  0  0  0  0  0  0  0  0  0  0  0
   31.3031  -28.2241  -35.8927 C   0  0  0  0  0  0  0  0  0  0  0  0
   28.9243  -24.6781  -38.0876 C   0  0  0  0  0  0  0  0  0  0  0  0
   29.4185  -23.7865  -37.1576 C   0  0  0  0  0  0  0  0  0  0  0  0
   30.2675  -24.2465  -36.1355 C   0  0  0  0  0  0  0  0  0  0  0  0
   30.7238  -23.3696  -35.2469 N   0  0  0  0  0  0  0  0  0  0  0  0
   30.3993  -22.0625  -35.2947 C   0  0  0  0  0  0  0  0  0  0  0  0
   29.5854  -21.6508  -36.2826 N   0  0  0  0  0  0  0  0  0  0  0  0
   29.0752  -22.4585  -37.2245 C   0  0  0  0  0  0  0  0  0  0  0  0
   28.2255  -21.9939  -38.2463 N   0  0  0  0  0  0  0  0  0  0  0  0
   27.8663  -20.6366  -38.4269 C   0  0  0  0  0  0  0  0  0  0  0  0
   28.8045  -19.6286  -38.3407 C   0  0  0  0  0  0  0  0  0  0  0  0
   28.5111  -18.2914  -38.5139 C   0  0  0  0  0  0  0  0  0  0  0  0
   29.7181  -17.0291  -38.4048 Cl  0  0  0  0  0  0  0  0  0  0  0  0
   27.2036  -17.8965  -38.7922 C   0  0  0  0  0  0  0  0  0  0  0  0
   26.8987  -16.5868  -38.9663 F   0  0  0  0  0  0  0  0  0  0  0  0
   26.2595  -18.8934  -38.8799 C   0  0  0  0  0  0  0  0  0  0  0  0
   26.5642  -20.2339  -38.7051 C   0  0  0  0  0  0  0  0  0  0  0  0
 20 19  2  0
 20 21  1  0
 18 13  1  0
 18 17  2  0
 18 19  1  0
 17 16  1  0
 17 22  1  0
 22 21  2  0
 22 23  1  0
 15 14  1  0
 30 28  1  0
 30 31  2  0
 31 24  1  0
 25 24  2  0
 25 26  1  0
 13 12  2  0
 16 11  2  0
  8  7  1  0
  8  9  1  0
  9 10  1  0
  2  1  1  0
  2  3  1  0
  4  3  1  0
  4  5  1  0
  7  6  1  0
  1  6  1  0
  5  6  1  0
 28 26  2  0
 28 29  1  0
 26 27  1  0
 24 23  1  0
 12 11  1  0
 12 14  1  0
 11 10  1  0
M  CHG  1   6   1
M  END
$$$$
