
     RDKit          3D

 31 34  0  0  0  0  0  0  0  0999 V2000
   28.3502  -31.2794  -41.8448 C   0  0  0  0  0  0  0  0  0  0  0  0
   27.5301  -31.9645  -42.9137 C   0  0  0  0  0  0  0  0  0  0  0  0
   26.5342  -31.1106  -43.4241 O   0  0  0  0  0  0  0  0  0  0  0  0
   27.1255  -29.9138  -43.8815 C   0  0  0  0  0  0  0  0  0  0  0  0
   27.8517  -29.1894  -42.7693 C   0  0  0  0  0  0  0  0  0  0  0  0
   27.7471  -29.9924  -41.5801 N   0  0  0  0  0  4  0  0  0  0  0  0
   28.3196  -29.3492  -40.4184 C   0  0  0  0  0  0  0  0  0  0  0  0
   27.4477  -28.2178  -39.9141 C   0  0  0  0  0  0  0  0  0  0  0  0
   28.3310  -27.0107  -39.7224 C   0  0  0  0  0  0  0  0  0  0  0  0
   29.1683  -27.1115  -38.6169 O   0  0  0  0  0  0  0  0  0  0  0  0
   29.4504  -26.1448  -37.6847 C   0  0  0  0  0  0  0  0  0  0  0  0
   30.1580  -26.5431  -36.5544 C   0  0  0  0  0  0  0  0  0  0  0  0
   30.4877  -25.6417  -35.5612 C   0  0  0  0  0  0  0  0  0  0  0  0
   30.5515  -27.8599  -36.3941 O   0  0  0  0  0  0  0  0  0  0  0  0
   31.8596  -28.1495  -35.9579 C   0  0  0  0  0  0  0  0  0  0  0  0
   29.0756  -24.8258  -37.8093 C   0  0  0  0  0  0  0  0  0  0  0  0
   29.3913  -23.9042  -36.8320 C   0  0  0  0  0  0  0  0  0  0  0  0
   30.1062  -24.3150  -35.6931 C   0  0  0  0  0  0  0  0  0  0  0  0
   30.3910  -23.4101  -34.7620 N   0  0  0  0  0  0  0  0  0  0  0  0
   30.0175  -22.1202  -34.8749 C   0  0  0  0  0  0  0  0  0  0  0  0
   29.3347  -21.7557  -35.9743 N   0  0  0  0  0  0  0  0  0  0  0  0
   29.0010  -22.5944  -36.9669 C   0  0  0  0  0  0  0  0  0  0  0  0
   28.2853  -22.1789  -38.1057 N   0  0  0  0  0  0  0  0  0  0  0  0
   27.8735  -20.8457  -38.3443 C   0  0  0  0  0  0  0  0  0  0  0  0
   28.7570  -19.7916  -38.2346 C   0  0  0  0  0  0  0  0  0  0  0  0
   28.4114  -18.4750  -38.4617 C   0  0  0  0  0  0  0  0  0  0  0  0
   29.5496  -17.1533  -38.3213 Cl  0  0  0  0  0  0  0  0  0  0  0  0
   27.1048  -18.1512  -38.8233 C   0  0  0  0  0  0  0  0  0  0  0  0
   26.7491  -16.8627  -39.0511 F   0  0  0  0  0  0  0  0  0  0  0  0
   26.2151  -19.1947  -38.9352 C   0  0  0  0  0  0  0  0  0  0  0  0
   26.5719  -20.5138  -38.7059 C   0  0  0  0  0  0  0  0  0  0  0  0
 20 19  2  0
 20 21  1  0
 18 13  1  0
 18 17  2  0
 18 19  1  0
 17 16  1  0
 17 22  1  0
 22 21  2  0
 22 23  1  0
 15 14  1  0
 30 28  1  0
 30 31  2  0
 31 24  1  0
 25 24  2  0
 25 26  1  0
 13 12  2  0
 16 11  2  0
  8  7  1  0
  8  9  1  0
  9 10  1  0
  2  1  1  0
  2  3  1  0
  4  3  1  0
  4  5  1  0
  7  6  1  0
  1  6  1  0
  5  6  1  0
 28 26  2  0
 28 29  1  0
 26 27  1  0
 24 23  1  0
 12 11  1  0
 12 14  1  0
 11 10  1  0
M  CHG  1   6   1
M  END
$$$$
