
     RDKit          3D

 31 34  0  0  0  0  0  0  0  0999 V2000
   25.5023  -27.8837  -42.2227 C   0  0  0  0  0  0  0  0  0  0  0  0
   24.3862  -28.0116  -43.2339 C   0  0  0  0  0  0  0  0  0  0  0  0
   24.7049  -27.3548  -44.4374 O   0  0  0  0  0  0  0  0  0  0  0  0
   25.9363  -27.8378  -44.9287 C   0  0  0  0  0  0  0  0  0  0  0  0
   27.0609  -27.6028  -43.9441 C   0  0  0  0  0  0  0  0  0  0  0  0
   26.4971  -26.9893  -42.7712 N   0  0  0  0  0  4  0  0  0  0  0  0
   27.4990  -26.6218  -41.7954 C   0  0  0  0  0  0  0  0  0  0  0  0
   27.8087  -27.7632  -40.8489 C   0  0  0  0  0  0  0  0  0  0  0  0
   27.9309  -27.1858  -39.4613 C   0  0  0  0  0  0  0  0  0  0  0  0
   29.2456  -26.9401  -39.0813 O   0  0  0  0  0  0  0  0  0  0  0  0
   29.7049  -25.9822  -38.2126 C   0  0  0  0  0  0  0  0  0  0  0  0
   30.6393  -26.3850  -37.2630 C   0  0  0  0  0  0  0  0  0  0  0  0
   31.1587  -25.4925  -36.3458 C   0  0  0  0  0  0  0  0  0  0  0  0
   31.0745  -27.6974  -37.2116 O   0  0  0  0  0  0  0  0  0  0  0  0
   32.2476  -28.0165  -36.4992 C   0  0  0  0  0  0  0  0  0  0  0  0
   29.2954  -24.6678  -38.2330 C   0  0  0  0  0  0  0  0  0  0  0  0
   29.7976  -23.7551  -37.3281 C   0  0  0  0  0  0  0  0  0  0  0  0
   30.7411  -24.1704  -36.3718 C   0  0  0  0  0  0  0  0  0  0  0  0
   31.2036  -23.2743  -35.5059 N   0  0  0  0  0  0  0  0  0  0  0  0
   30.7982  -21.9891  -35.5157 C   0  0  0  0  0  0  0  0  0  0  0  0
   29.8950  -21.6201  -36.4409 N   0  0  0  0  0  0  0  0  0  0  0  0
   29.3710  -22.4500  -37.3555 C   0  0  0  0  0  0  0  0  0  0  0  0
   28.4266  -22.0301  -38.3114 N   0  0  0  0  0  0  0  0  0  0  0  0
   27.9878  -20.6927  -38.4625 C   0  0  0  0  0  0  0  0  0  0  0  0
   28.0445  -19.7965  -37.4151 C   0  0  0  0  0  0  0  0  0  0  0  0
   27.6367  -18.4815  -37.5084 C   0  0  0  0  0  0  0  0  0  0  0  0
   27.7217  -17.3600  -36.1679 Cl  0  0  0  0  0  0  0  0  0  0  0  0
   27.1320  -17.9936  -38.7126 C   0  0  0  0  0  0  0  0  0  0  0  0
   26.7279  -16.7037  -38.8215 F   0  0  0  0  0  0  0  0  0  0  0  0
   27.0704  -18.8789  -39.7639 C   0  0  0  0  0  0  0  0  0  0  0  0
   27.4831  -20.1976  -39.6605 C   0  0  0  0  0  0  0  0  0  0  0  0
 20 19  2  0
 20 21  1  0
 18 13  1  0
 18 17  2  0
 18 19  1  0
 17 16  1  0
 17 22  1  0
 22 21  2  0
 22 23  1  0
 15 14  1  0
 30 28  1  0
 30 31  2  0
 31 24  1  0
 25 24  2  0
 25 26  1  0
 13 12  2  0
 16 11  2  0
  8  7  1  0
  8  9  1  0
  9 10  1  0
  2  1  1  0
  2  3  1  0
  4  3  1  0
  4  5  1  0
  7  6  1  0
  1  6  1  0
  5  6  1  0
 28 26  2  0
 28 29  1  0
 26 27  1  0
 24 23  1  0
 12 11  1  0
 12 14  1  0
 11 10  1  0
M  CHG  1   6   1
M  END
$$$$
