
     RDKit          3D

 31 34  0  0  0  0  0  0  0  0999 V2000
   27.6825  -29.1816  -43.2676 C   0  0  0  0  0  0  0  0  0  0  0  0
   26.9022  -29.9963  -44.2736 C   0  0  0  0  0  0  0  0  0  0  0  0
   25.8009  -30.6359  -43.6739 O   0  0  0  0  0  0  0  0  0  0  0  0
   24.9990  -29.6797  -43.0153 C   0  0  0  0  0  0  0  0  0  0  0  0
   25.7717  -28.9497  -41.9385 C   0  0  0  0  0  0  0  0  0  0  0  0
   27.1242  -29.4399  -41.9592 N   0  0  0  0  0  4  0  0  0  0  0  0
   27.9366  -28.8854  -40.8992 C   0  0  0  0  0  0  0  0  0  0  0  0
   27.9757  -27.3721  -40.9525 C   0  0  0  0  0  0  0  0  0  0  0  0
   27.9469  -26.8639  -39.5330 C   0  0  0  0  0  0  0  0  0  0  0  0
   29.1994  -26.8457  -38.9296 O   0  0  0  0  0  0  0  0  0  0  0  0
   29.6984  -25.9127  -38.0557 C   0  0  0  0  0  0  0  0  0  0  0  0
   30.6297  -26.3555  -37.1211 C   0  0  0  0  0  0  0  0  0  0  0  0
   31.1872  -25.4902  -36.2002 C   0  0  0  0  0  0  0  0  0  0  0  0
   31.0234  -27.6815  -37.0888 O   0  0  0  0  0  0  0  0  0  0  0  0
   32.0097  -28.0948  -36.1712 C   0  0  0  0  0  0  0  0  0  0  0  0
   29.3308  -24.5858  -38.0573 C   0  0  0  0  0  0  0  0  0  0  0  0
   29.8715  -23.6996  -37.1483 C   0  0  0  0  0  0  0  0  0  0  0  0
   30.8116  -24.1553  -36.2072 C   0  0  0  0  0  0  0  0  0  0  0  0
   31.3118  -23.2840  -35.3368 N   0  0  0  0  0  0  0  0  0  0  0  0
   30.9475  -21.9866  -35.3282 C   0  0  0  0  0  0  0  0  0  0  0  0
   30.0465  -21.5789  -36.2391 N   0  0  0  0  0  0  0  0  0  0  0  0
   29.4864  -22.3814  -37.1568 C   0  0  0  0  0  0  0  0  0  0  0  0
   28.5456  -21.9211  -38.0975 N   0  0  0  0  0  0  0  0  0  0  0  0
   28.2256  -20.5573  -38.3010 C   0  0  0  0  0  0  0  0  0  0  0  0
   29.2000  -19.5807  -38.2787 C   0  0  0  0  0  0  0  0  0  0  0  0
   28.9453  -18.2390  -38.4768 C   0  0  0  0  0  0  0  0  0  0  0  0
   30.1976  -17.0171  -38.4490 Cl  0  0  0  0  0  0  0  0  0  0  0  0
   27.6419  -17.8062  -38.7151 C   0  0  0  0  0  0  0  0  0  0  0  0
   27.3748  -16.4916  -38.9129 F   0  0  0  0  0  0  0  0  0  0  0  0
   26.6619  -18.7715  -38.7390 C   0  0  0  0  0  0  0  0  0  0  0  0
   26.9278  -20.1168  -38.5396 C   0  0  0  0  0  0  0  0  0  0  0  0
 20 19  2  0
 20 21  1  0
 18 13  1  0
 18 17  2  0
 18 19  1  0
 17 16  1  0
 17 22  1  0
 22 21  2  0
 22 23  1  0
 15 14  1  0
 30 28  1  0
 30 31  2  0
 31 24  1  0
 25 24  2  0
 25 26  1  0
 13 12  2  0
 16 11  2  0
  8  7  1  0
  8  9  1  0
  9 10  1  0
  2  1  1  0
  2  3  1  0
  4  3  1  0
  4  5  1  0
  7  6  1  0
  1  6  1  0
  5  6  1  0
 28 26  2  0
 28 29  1  0
 26 27  1  0
 24 23  1  0
 12 11  1  0
 12 14  1  0
 11 10  1  0
M  CHG  1   6   1
M  END
$$$$
