
     RDKit          3D

 31 34  0  0  0  0  0  0  0  0999 V2000
   26.4908  -30.8178  -41.1634 C   0  0  0  0  0  0  0  0  0  0  0  0
   25.2586  -31.4168  -41.8018 C   0  0  0  0  0  0  0  0  0  0  0  0
   24.4099  -30.4192  -42.3174 O   0  0  0  0  0  0  0  0  0  0  0  0
   25.1327  -29.5960  -43.2068 C   0  0  0  0  0  0  0  0  0  0  0  0
   26.2999  -28.9216  -42.5197 C   0  0  0  0  0  0  0  0  0  0  0  0
   26.3324  -29.3807  -41.1566 N   0  0  0  0  0  4  0  0  0  0  0  0
   27.3505  -28.7224  -40.3686 C   0  0  0  0  0  0  0  0  0  0  0  0
   28.0759  -27.6561  -41.1632 C   0  0  0  0  0  0  0  0  0  0  0  0
   28.1815  -26.4296  -40.2921 C   0  0  0  0  0  0  0  0  0  0  0  0
   29.0136  -26.6059  -39.1922 O   0  0  0  0  0  0  0  0  0  0  0  0
   29.4335  -25.6565  -38.2947 C   0  0  0  0  0  0  0  0  0  0  0  0
   30.3034  -26.0747  -37.2919 C   0  0  0  0  0  0  0  0  0  0  0  0
   30.7794  -25.1917  -36.3426 C   0  0  0  0  0  0  0  0  0  0  0  0
   30.7160  -27.3933  -37.2184 O   0  0  0  0  0  0  0  0  0  0  0  0
   31.7119  -27.7626  -36.2925 C   0  0  0  0  0  0  0  0  0  0  0  0
   29.0447  -24.3363  -38.3358 C   0  0  0  0  0  0  0  0  0  0  0  0
   29.5046  -23.4328  -37.3997 C   0  0  0  0  0  0  0  0  0  0  0  0
   30.3830  -23.8636  -36.3897 C   0  0  0  0  0  0  0  0  0  0  0  0
   30.8053  -22.9761  -35.4949 N   0  0  0  0  0  0  0  0  0  0  0  0
   30.4196  -21.6852  -35.5253 C   0  0  0  0  0  0  0  0  0  0  0  0
   29.5789  -21.3013  -36.5019 N   0  0  0  0  0  0  0  0  0  0  0  0
   29.0990  -22.1217  -37.4488 C   0  0  0  0  0  0  0  0  0  0  0  0
   28.2198  -21.6862  -38.4584 N   0  0  0  0  0  0  0  0  0  0  0  0
   27.8814  -20.3312  -38.6890 C   0  0  0  0  0  0  0  0  0  0  0  0
   28.8501  -19.3507  -38.7528 C   0  0  0  0  0  0  0  0  0  0  0  0
   28.5774  -18.0174  -38.9809 C   0  0  0  0  0  0  0  0  0  0  0  0
   29.8225  -16.7906  -39.0626 Cl  0  0  0  0  0  0  0  0  0  0  0  0
   27.2605  -17.5976  -39.1611 C   0  0  0  0  0  0  0  0  0  0  0  0
   26.9756  -16.2913  -39.3873 F   0  0  0  0  0  0  0  0  0  0  0  0
   26.2861  -18.5669  -39.0989 C   0  0  0  0  0  0  0  0  0  0  0  0
   26.5701  -19.9037  -38.8700 C   0  0  0  0  0  0  0  0  0  0  0  0
 20 19  2  0
 20 21  1  0
 18 13  1  0
 18 17  2  0
 18 19  1  0
 17 16  1  0
 17 22  1  0
 22 21  2  0
 22 23  1  0
 15 14  1  0
 30 28  1  0
 30 31  2  0
 31 24  1  0
 25 24  2  0
 25 26  1  0
 13 12  2  0
 16 11  2  0
  8  7  1  0
  8  9  1  0
  9 10  1  0
  2  1  1  0
  2  3  1  0
  4  3  1  0
  4  5  1  0
  7  6  1  0
  1  6  1  0
  5  6  1  0
 28 26  2  0
 28 29  1  0
 26 27  1  0
 24 23  1  0
 12 11  1  0
 12 14  1  0
 11 10  1  0
M  CHG  1   6   1
M  END
$$$$
