
     RDKit          3D

 31 34  0  0  0  0  0  0  0  0999 V2000
   26.4910  -29.6373  -42.9100 C   0  0  0  0  0  0  0  0  0  0  0  0
   25.3795  -30.6555  -43.0217 C   0  0  0  0  0  0  0  0  0  0  0  0
   24.1237  -30.0770  -42.7574 O   0  0  0  0  0  0  0  0  0  0  0  0
   23.9259  -28.9667  -43.6055 C   0  0  0  0  0  0  0  0  0  0  0  0
   24.9905  -27.9113  -43.4007 C   0  0  0  0  0  0  0  0  0  0  0  0
   25.9161  -28.4059  -42.4166 N   0  0  0  0  0  4  0  0  0  0  0  0
   26.9270  -27.4348  -42.0613 C   0  0  0  0  0  0  0  0  0  0  0  0
   27.7925  -27.9164  -40.9153 C   0  0  0  0  0  0  0  0  0  0  0  0
   27.8324  -26.8202  -39.8806 C   0  0  0  0  0  0  0  0  0  0  0  0
   29.0313  -26.7697  -39.1782 O   0  0  0  0  0  0  0  0  0  0  0  0
   29.4191  -25.8444  -38.2419 C   0  0  0  0  0  0  0  0  0  0  0  0
   30.2434  -26.2920  -37.2137 C   0  0  0  0  0  0  0  0  0  0  0  0
   30.6847  -25.4347  -36.2248 C   0  0  0  0  0  0  0  0  0  0  0  0
   30.6441  -27.6150  -37.1538 O   0  0  0  0  0  0  0  0  0  0  0  0
   31.5428  -28.0275  -36.1499 C   0  0  0  0  0  0  0  0  0  0  0  0
   29.0408  -24.5208  -38.2683 C   0  0  0  0  0  0  0  0  0  0  0  0
   29.4666  -23.6426  -37.2929 C   0  0  0  0  0  0  0  0  0  0  0  0
   30.2990  -24.1030  -36.2575 C   0  0  0  0  0  0  0  0  0  0  0  0
   30.6890  -23.2395  -35.3252 N   0  0  0  0  0  0  0  0  0  0  0  0
   30.3131  -21.9455  -35.3415 C   0  0  0  0  0  0  0  0  0  0  0  0
   29.5167  -21.5330  -36.3432 N   0  0  0  0  0  0  0  0  0  0  0  0
   29.0718  -22.3277  -37.3283 C   0  0  0  0  0  0  0  0  0  0  0  0
   28.2387  -21.8626  -38.3633 N   0  0  0  0  0  0  0  0  0  0  0  0
   27.9383  -20.4981  -38.5909 C   0  0  0  0  0  0  0  0  0  0  0  0
   28.9218  -19.5311  -38.5531 C   0  0  0  0  0  0  0  0  0  0  0  0
   28.6865  -18.1893  -38.7732 C   0  0  0  0  0  0  0  0  0  0  0  0
   29.9501  -16.9798  -38.7251 Cl  0  0  0  0  0  0  0  0  0  0  0  0
   27.3946  -17.7463  -39.0517 C   0  0  0  0  0  0  0  0  0  0  0  0
   27.1465  -16.4314  -39.2716 F   0  0  0  0  0  0  0  0  0  0  0  0
   26.4057  -18.7020  -39.0914 C   0  0  0  0  0  0  0  0  0  0  0  0
   26.6522  -20.0474  -38.8696 C   0  0  0  0  0  0  0  0  0  0  0  0
 20 19  2  0
 20 21  1  0
 18 13  1  0
 18 17  2  0
 18 19  1  0
 17 16  1  0
 17 22  1  0
 22 21  2  0
 22 23  1  0
 15 14  1  0
 30 28  1  0
 30 31  2  0
 31 24  1  0
 25 24  2  0
 25 26  1  0
 13 12  2  0
 16 11  2  0
  8  7  1  0
  8  9  1  0
  9 10  1  0
  2  1  1  0
  2  3  1  0
  4  3  1  0
  4  5  1  0
  7  6  1  0
  1  6  1  0
  5  6  1  0
 28 26  2  0
 28 29  1  0
 26 27  1  0
 24 23  1  0
 12 11  1  0
 12 14  1  0
 11 10  1  0
M  CHG  1   6   1
M  END
$$$$
