
     RDKit          3D

 31 34  0  0  0  0  0  0  0  0999 V2000
   24.4179  -29.2688  -41.8490 C   0  0  0  0  0  0  0  0  0  0  0  0
   23.8367  -29.5057  -43.2240 C   0  0  0  0  0  0  0  0  0  0  0  0
   24.7054  -29.0520  -44.2346 O   0  0  0  0  0  0  0  0  0  0  0  0
   25.9728  -29.6511  -44.0736 C   0  0  0  0  0  0  0  0  0  0  0  0
   26.5837  -29.3128  -42.7314 C   0  0  0  0  0  0  0  0  0  0  0  0
   25.6364  -28.5071  -42.0079 N   0  0  0  0  0  4  0  0  0  0  0  0
   26.1545  -28.0346  -40.7433 C   0  0  0  0  0  0  0  0  0  0  0  0
   27.6526  -28.2326  -40.6390 C   0  0  0  0  0  0  0  0  0  0  0  0
   28.2587  -26.9189  -40.2136 C   0  0  0  0  0  0  0  0  0  0  0  0
   29.1787  -27.0467  -39.1790 O   0  0  0  0  0  0  0  0  0  0  0  0
   29.5063  -26.1161  -38.2251 C   0  0  0  0  0  0  0  0  0  0  0  0
   30.2775  -26.5539  -37.1525 C   0  0  0  0  0  0  0  0  0  0  0  0
   30.6563  -25.6906  -36.1432 C   0  0  0  0  0  0  0  0  0  0  0  0
   30.6868  -27.8729  -37.0677 O   0  0  0  0  0  0  0  0  0  0  0  0
   31.4720  -28.2914  -35.9752 C   0  0  0  0  0  0  0  0  0  0  0  0
   29.1176  -24.7961  -38.2753 C   0  0  0  0  0  0  0  0  0  0  0  0
   29.4814  -23.9121  -37.2802 C   0  0  0  0  0  0  0  0  0  0  0  0
   30.2605  -24.3627  -36.1999 C   0  0  0  0  0  0  0  0  0  0  0  0
   30.5910  -23.4938  -35.2499 N   0  0  0  0  0  0  0  0  0  0  0  0
   30.2045  -22.2034  -35.2897 C   0  0  0  0  0  0  0  0  0  0  0  0
   29.4600  -21.8004  -36.3342 N   0  0  0  0  0  0  0  0  0  0  0  0
   29.0768  -22.6011  -37.3402 C   0  0  0  0  0  0  0  0  0  0  0  0
   28.2969  -22.1459  -38.4202 N   0  0  0  0  0  0  0  0  0  0  0  0
   28.0809  -20.7807  -38.7262 C   0  0  0  0  0  0  0  0  0  0  0  0
   29.0842  -19.8451  -38.5788 C   0  0  0  0  0  0  0  0  0  0  0  0
   28.9305  -18.5045  -38.8677 C   0  0  0  0  0  0  0  0  0  0  0  0
   30.2184  -17.3352  -38.6778 Cl  0  0  0  0  0  0  0  0  0  0  0  0
   27.7067  -18.0297  -39.3364 C   0  0  0  0  0  0  0  0  0  0  0  0
   27.5395  -16.7156  -39.6260 F   0  0  0  0  0  0  0  0  0  0  0  0
   26.6988  -18.9540  -39.4867 C   0  0  0  0  0  0  0  0  0  0  0  0
   26.8630  -20.2985  -39.1946 C   0  0  0  0  0  0  0  0  0  0  0  0
 20 19  2  0
 20 21  1  0
 18 13  1  0
 18 17  2  0
 18 19  1  0
 17 16  1  0
 17 22  1  0
 22 21  2  0
 22 23  1  0
 15 14  1  0
 30 28  1  0
 30 31  2  0
 31 24  1  0
 25 24  2  0
 25 26  1  0
 13 12  2  0
 16 11  2  0
  8  7  1  0
  8  9  1  0
  9 10  1  0
  2  1  1  0
  2  3  1  0
  4  3  1  0
  4  5  1  0
  7  6  1  0
  1  6  1  0
  5  6  1  0
 28 26  2  0
 28 29  1  0
 26 27  1  0
 24 23  1  0
 12 11  1  0
 12 14  1  0
 11 10  1  0
M  CHG  1   6   1
M  END
$$$$
