
     RDKit          3D

 31 34  0  0  0  0  0  0  0  0999 V2000
   25.1774  -27.9848  -43.0058 C   0  0  0  0  0  0  0  0  0  0  0  0
   25.0823  -27.6580  -44.4785 C   0  0  0  0  0  0  0  0  0  0  0  0
   26.3046  -27.8909  -45.1368 O   0  0  0  0  0  0  0  0  0  0  0  0
   26.7222  -29.2185  -44.9043 C   0  0  0  0  0  0  0  0  0  0  0  0
   26.9146  -29.4928  -43.4289 C   0  0  0  0  0  0  0  0  0  0  0  0
   26.5571  -28.2992  -42.7096 N   0  0  0  0  0  4  0  0  0  0  0  0
   26.7997  -28.4086  -41.2883 C   0  0  0  0  0  0  0  0  0  0  0  0
   27.2986  -27.1049  -40.7002 C   0  0  0  0  0  0  0  0  0  0  0  0
   27.3867  -27.2820  -39.2052 C   0  0  0  0  0  0  0  0  0  0  0  0
   28.6754  -27.1245  -38.7074 O   0  0  0  0  0  0  0  0  0  0  0  0
   29.1309  -26.1616  -37.8423 C   0  0  0  0  0  0  0  0  0  0  0  0
   30.0404  -26.5646  -36.8690 C   0  0  0  0  0  0  0  0  0  0  0  0
   30.5542  -25.6672  -35.9534 C   0  0  0  0  0  0  0  0  0  0  0  0
   30.4558  -27.8821  -36.7916 O   0  0  0  0  0  0  0  0  0  0  0  0
   31.4123  -28.2571  -35.8272 C   0  0  0  0  0  0  0  0  0  0  0  0
   28.7406  -24.8420  -37.8882 C   0  0  0  0  0  0  0  0  0  0  0  0
   29.2376  -23.9243  -36.9855 C   0  0  0  0  0  0  0  0  0  0  0  0
   30.1560  -24.3398  -36.0052 C   0  0  0  0  0  0  0  0  0  0  0  0
   30.6138  -23.4387  -35.1419 N   0  0  0  0  0  0  0  0  0  0  0  0
   30.2270  -22.1483  -35.1768 C   0  0  0  0  0  0  0  0  0  0  0  0
   29.3477  -21.7792  -36.1246 N   0  0  0  0  0  0  0  0  0  0  0  0
   28.8302  -22.6139  -37.0386 C   0  0  0  0  0  0  0  0  0  0  0  0
   27.9111  -22.1937  -38.0187 N   0  0  0  0  0  0  0  0  0  0  0  0
   27.5749  -20.8412  -38.2667 C   0  0  0  0  0  0  0  0  0  0  0  0
   28.5427  -19.8591  -38.3174 C   0  0  0  0  0  0  0  0  0  0  0  0
   28.2722  -18.5281  -38.5614 C   0  0  0  0  0  0  0  0  0  0  0  0
   29.5162  -17.2992  -38.6260 Cl  0  0  0  0  0  0  0  0  0  0  0  0
   26.9586  -18.1127  -38.7726 C   0  0  0  0  0  0  0  0  0  0  0  0
   26.6758  -16.8088  -39.0147 F   0  0  0  0  0  0  0  0  0  0  0  0
   25.9850  -19.0836  -38.7237 C   0  0  0  0  0  0  0  0  0  0  0  0
   26.2668  -20.4180  -38.4787 C   0  0  0  0  0  0  0  0  0  0  0  0
 20 19  2  0
 20 21  1  0
 18 13  1  0
 18 17  2  0
 18 19  1  0
 17 16  1  0
 17 22  1  0
 22 21  2  0
 22 23  1  0
 15 14  1  0
 30 28  1  0
 30 31  2  0
 31 24  1  0
 25 24  2  0
 25 26  1  0
 13 12  2  0
 16 11  2  0
  8  7  1  0
  8  9  1  0
  9 10  1  0
  2  1  1  0
  2  3  1  0
  4  3  1  0
  4  5  1  0
  7  6  1  0
  1  6  1  0
  5  6  1  0
 28 26  2  0
 28 29  1  0
 26 27  1  0
 24 23  1  0
 12 11  1  0
 12 14  1  0
 11 10  1  0
M  CHG  1   6   1
M  END
$$$$
