
     RDKit          3D

 31 34  0  0  0  0  0  0  0  0999 V2000
   25.4843  -27.8220  -43.6225 C   0  0  0  0  0  0  0  0  0  0  0  0
   24.2928  -28.6123  -44.1127 C   0  0  0  0  0  0  0  0  0  0  0  0
   24.0931  -29.7729  -43.3415 O   0  0  0  0  0  0  0  0  0  0  0  0
   23.9852  -29.4232  -41.9788 C   0  0  0  0  0  0  0  0  0  0  0  0
   25.2332  -28.7278  -41.4806 C   0  0  0  0  0  0  0  0  0  0  0  0
   26.1374  -28.5979  -42.5921 N   0  0  0  0  0  4  0  0  0  0  0  0
   27.4145  -28.0363  -42.2117 C   0  0  0  0  0  0  0  0  0  0  0  0
   27.5957  -28.0167  -40.7080 C   0  0  0  0  0  0  0  0  0  0  0  0
   28.2748  -26.7197  -40.3464 C   0  0  0  0  0  0  0  0  0  0  0  0
   29.1877  -26.8481  -39.3056 O   0  0  0  0  0  0  0  0  0  0  0  0
   29.5310  -25.9074  -38.3672 C   0  0  0  0  0  0  0  0  0  0  0  0
   30.3378  -26.3289  -37.3145 C   0  0  0  0  0  0  0  0  0  0  0  0
   30.7348  -25.4546  -36.3217 C   0  0  0  0  0  0  0  0  0  0  0  0
   30.7655  -27.6423  -37.2334 O   0  0  0  0  0  0  0  0  0  0  0  0
   30.9210  -28.2493  -35.9712 C   0  0  0  0  0  0  0  0  0  0  0  0
   29.1250  -24.5926  -38.4143 C   0  0  0  0  0  0  0  0  0  0  0  0
   29.5063  -23.6978  -37.4355 C   0  0  0  0  0  0  0  0  0  0  0  0
   30.3213  -24.1320  -36.3752 C   0  0  0  0  0  0  0  0  0  0  0  0
   30.6683  -23.2530  -35.4404 N   0  0  0  0  0  0  0  0  0  0  0  0
   30.2650  -21.9677  -35.4770 C   0  0  0  0  0  0  0  0  0  0  0  0
   29.4861  -21.5804  -36.5023 N   0  0  0  0  0  0  0  0  0  0  0  0
   29.0842  -22.3922  -37.4919 C   0  0  0  0  0  0  0  0  0  0  0  0
   28.2682  -21.9533  -38.5519 N   0  0  0  0  0  0  0  0  0  0  0  0
   27.9544  -20.5965  -38.8056 C   0  0  0  0  0  0  0  0  0  0  0  0
   28.9439  -19.6443  -38.9393 C   0  0  0  0  0  0  0  0  0  0  0  0
   28.6952  -18.3108  -39.1928 C   0  0  0  0  0  0  0  0  0  0  0  0
   29.9662  -17.1202  -39.3634 Cl  0  0  0  0  0  0  0  0  0  0  0  0
   27.3827  -17.8612  -39.3270 C   0  0  0  0  0  0  0  0  0  0  0  0
   27.1212  -16.5544  -39.5773 F   0  0  0  0  0  0  0  0  0  0  0  0
   26.3878  -18.8022  -39.1950 C   0  0  0  0  0  0  0  0  0  0  0  0
   26.6476  -20.1394  -38.9412 C   0  0  0  0  0  0  0  0  0  0  0  0
 20 19  2  0
 20 21  1  0
 18 13  1  0
 18 17  2  0
 18 19  1  0
 17 16  1  0
 17 22  1  0
 22 21  2  0
 22 23  1  0
 15 14  1  0
 30 28  1  0
 30 31  2  0
 31 24  1  0
 25 24  2  0
 25 26  1  0
 13 12  2  0
 16 11  2  0
  8  7  1  0
  8  9  1  0
  9 10  1  0
  2  1  1  0
  2  3  1  0
  4  3  1  0
  4  5  1  0
  7  6  1  0
  1  6  1  0
  5  6  1  0
 28 26  2  0
 28 29  1  0
 26 27  1  0
 24 23  1  0
 12 11  1  0
 12 14  1  0
 11 10  1  0
M  CHG  1   6   1
M  END
$$$$
