
     RDKit          3D

 31 34  0  0  0  0  0  0  0  0999 V2000
   28.2146  -29.6403  -43.0430 C   0  0  0  0  0  0  0  0  0  0  0  0
   28.0205  -30.7295  -44.0728 C   0  0  0  0  0  0  0  0  0  0  0  0
   27.1671  -31.7422  -43.5956 O   0  0  0  0  0  0  0  0  0  0  0  0
   25.9463  -31.1734  -43.1749 C   0  0  0  0  0  0  0  0  0  0  0  0
   26.1535  -30.1627  -42.0682 C   0  0  0  0  0  0  0  0  0  0  0  0
   27.5675  -30.0646  -41.8217 N   0  0  0  0  0  4  0  0  0  0  0  0
   27.8824  -29.1988  -40.7071 C   0  0  0  0  0  0  0  0  0  0  0  0
   27.3712  -27.7899  -40.9265 C   0  0  0  0  0  0  0  0  0  0  0  0
   28.4386  -26.8372  -40.4500 C   0  0  0  0  0  0  0  0  0  0  0  0
   28.8140  -27.0480  -39.1279 O   0  0  0  0  0  0  0  0  0  0  0  0
   29.2270  -26.1135  -38.2117 C   0  0  0  0  0  0  0  0  0  0  0  0
   30.0419  -26.5602  -37.1757 C   0  0  0  0  0  0  0  0  0  0  0  0
   30.5069  -25.6939  -36.2057 C   0  0  0  0  0  0  0  0  0  0  0  0
   30.4092  -27.8914  -37.0887 O   0  0  0  0  0  0  0  0  0  0  0  0
   31.2693  -28.3122  -36.0550 C   0  0  0  0  0  0  0  0  0  0  0  0
   28.8823  -24.7815  -38.2652 C   0  0  0  0  0  0  0  0  0  0  0  0
   29.3322  -23.8942  -37.3091 C   0  0  0  0  0  0  0  0  0  0  0  0
   30.1549  -24.3539  -36.2655 C   0  0  0  0  0  0  0  0  0  0  0  0
   30.5686  -23.4812  -35.3522 N   0  0  0  0  0  0  0  0  0  0  0  0
   30.2255  -22.1787  -35.3949 C   0  0  0  0  0  0  0  0  0  0  0  0
   29.4377  -21.7672  -36.4038 N   0  0  0  0  0  0  0  0  0  0  0  0
   28.9707  -22.5708  -37.3714 C   0  0  0  0  0  0  0  0  0  0  0  0
   28.1474  -22.1064  -38.4146 N   0  0  0  0  0  0  0  0  0  0  0  0
   27.8724  -20.7403  -38.6635 C   0  0  0  0  0  0  0  0  0  0  0  0
   28.8512  -19.7765  -38.5343 C   0  0  0  0  0  0  0  0  0  0  0  0
   28.6402  -18.4333  -38.7700 C   0  0  0  0  0  0  0  0  0  0  0  0
   29.8978  -17.2278  -38.6046 Cl  0  0  0  0  0  0  0  0  0  0  0  0
   27.3797  -17.9854  -39.1617 C   0  0  0  0  0  0  0  0  0  0  0  0
   27.1560  -16.6691  -39.3984 F   0  0  0  0  0  0  0  0  0  0  0  0
   26.3958  -18.9379  -39.2932 C   0  0  0  0  0  0  0  0  0  0  0  0
   26.6177  -20.2848  -39.0549 C   0  0  0  0  0  0  0  0  0  0  0  0
 20 19  2  0
 20 21  1  0
 18 13  1  0
 18 17  2  0
 18 19  1  0
 17 16  1  0
 17 22  1  0
 22 21  2  0
 22 23  1  0
 15 14  1  0
 30 28  1  0
 30 31  2  0
 31 24  1  0
 25 24  2  0
 25 26  1  0
 13 12  2  0
 16 11  2  0
  8  7  1  0
  8  9  1  0
  9 10  1  0
  2  1  1  0
  2  3  1  0
  4  3  1  0
  4  5  1  0
  7  6  1  0
  1  6  1  0
  5  6  1  0
 28 26  2  0
 28 29  1  0
 26 27  1  0
 24 23  1  0
 12 11  1  0
 12 14  1  0
 11 10  1  0
M  CHG  1   6   1
M  END
$$$$
