
     RDKit          3D

 31 34  0  0  0  0  0  0  0  0999 V2000
   26.2813  -30.1683  -42.2483 C   0  0  0  0  0  0  0  0  0  0  0  0
   25.3797  -30.4580  -43.4264 C   0  0  0  0  0  0  0  0  0  0  0  0
   25.9195  -29.9515  -44.6237 O   0  0  0  0  0  0  0  0  0  0  0  0
   27.2245  -30.4563  -44.8057 C   0  0  0  0  0  0  0  0  0  0  0  0
   28.1389  -30.0636  -43.6660 C   0  0  0  0  0  0  0  0  0  0  0  0
   27.3582  -29.3221  -42.7117 N   0  0  0  0  0  4  0  0  0  0  0  0
   28.1532  -28.8029  -41.6212 C   0  0  0  0  0  0  0  0  0  0  0  0
   27.4382  -27.6901  -40.8830 C   0  0  0  0  0  0  0  0  0  0  0  0
   28.4801  -26.6970  -40.4332 C   0  0  0  0  0  0  0  0  0  0  0  0
   28.9480  -26.9353  -39.1458 O   0  0  0  0  0  0  0  0  0  0  0  0
   29.4691  -26.0270  -38.2588 C   0  0  0  0  0  0  0  0  0  0  0  0
   30.3627  -26.5119  -37.3084 C   0  0  0  0  0  0  0  0  0  0  0  0
   30.9386  -25.6740  -36.3736 C   0  0  0  0  0  0  0  0  0  0  0  0
   30.6994  -27.8535  -37.2740 O   0  0  0  0  0  0  0  0  0  0  0  0
   31.5691  -28.3296  -36.2727 C   0  0  0  0  0  0  0  0  0  0  0  0
   29.1580  -24.6858  -38.2620 C   0  0  0  0  0  0  0  0  0  0  0  0
   29.7182  -23.8263  -37.3393 C   0  0  0  0  0  0  0  0  0  0  0  0
   30.6199  -24.3244  -36.3823 C   0  0  0  0  0  0  0  0  0  0  0  0
   31.1397  -23.4779  -35.4991 N   0  0  0  0  0  0  0  0  0  0  0  0
   30.8304  -22.1663  -35.4921 C   0  0  0  0  0  0  0  0  0  0  0  0
   29.9651  -21.7178  -36.4184 N   0  0  0  0  0  0  0  0  0  0  0  0
   29.3893  -22.4929  -37.3498 C   0  0  0  0  0  0  0  0  0  0  0  0
   28.4871  -21.9902  -38.3063 N   0  0  0  0  0  0  0  0  0  0  0  0
   28.1938  -20.6161  -38.4788 C   0  0  0  0  0  0  0  0  0  0  0  0
   29.1636  -19.6491  -38.3108 C   0  0  0  0  0  0  0  0  0  0  0  0
   28.9348  -18.2978  -38.4721 C   0  0  0  0  0  0  0  0  0  0  0  0
   30.1810  -17.0882  -38.2585 Cl  0  0  0  0  0  0  0  0  0  0  0  0
   27.6644  -17.8445  -38.8237 C   0  0  0  0  0  0  0  0  0  0  0  0
   27.4231  -16.5202  -38.9873 F   0  0  0  0  0  0  0  0  0  0  0  0
   26.6894  -18.8002  -38.9934 C   0  0  0  0  0  0  0  0  0  0  0  0
   26.9292  -20.1552  -38.8297 C   0  0  0  0  0  0  0  0  0  0  0  0
 20 19  2  0
 20 21  1  0
 18 13  1  0
 18 17  2  0
 18 19  1  0
 17 16  1  0
 17 22  1  0
 22 21  2  0
 22 23  1  0
 15 14  1  0
 30 28  1  0
 30 31  2  0
 31 24  1  0
 25 24  2  0
 25 26  1  0
 13 12  2  0
 16 11  2  0
  8  7  1  0
  8  9  1  0
  9 10  1  0
  2  1  1  0
  2  3  1  0
  4  3  1  0
  4  5  1  0
  7  6  1  0
  1  6  1  0
  5  6  1  0
 28 26  2  0
 28 29  1  0
 26 27  1  0
 24 23  1  0
 12 11  1  0
 12 14  1  0
 11 10  1  0
M  CHG  1   6   1
M  END
$$$$
