
     RDKit          3D

 31 34  0  0  0  0  0  0  0  0999 V2000
   26.4901  -30.7591  -41.5154 C   0  0  0  0  0  0  0  0  0  0  0  0
   25.2425  -31.0788  -42.3065 C   0  0  0  0  0  0  0  0  0  0  0  0
   24.8615  -29.9985  -43.1246 O   0  0  0  0  0  0  0  0  0  0  0  0
   25.9432  -29.6251  -43.9500 C   0  0  0  0  0  0  0  0  0  0  0  0
   27.1478  -29.2060  -43.1360 C   0  0  0  0  0  0  0  0  0  0  0  0
   26.8171  -29.3697  -41.7454 N   0  0  0  0  0  4  0  0  0  0  0  0
   27.8621  -28.9008  -40.8628 C   0  0  0  0  0  0  0  0  0  0  0  0
   28.0211  -27.3958  -40.9279 C   0  0  0  0  0  0  0  0  0  0  0  0
   27.8125  -26.8536  -39.5363 C   0  0  0  0  0  0  0  0  0  0  0  0
   28.9311  -26.9854  -38.7210 O   0  0  0  0  0  0  0  0  0  0  0  0
   29.4278  -26.0760  -37.8213 C   0  0  0  0  0  0  0  0  0  0  0  0
   30.3689  -26.5399  -36.9069 C   0  0  0  0  0  0  0  0  0  0  0  0
   30.9250  -25.6993  -35.9627 C   0  0  0  0  0  0  0  0  0  0  0  0
   30.7741  -27.8629  -36.9189 O   0  0  0  0  0  0  0  0  0  0  0  0
   31.7035  -28.3171  -35.9622 C   0  0  0  0  0  0  0  0  0  0  0  0
   29.0489  -24.7530  -37.7788 C   0  0  0  0  0  0  0  0  0  0  0  0
   29.5881  -23.8912  -36.8456 C   0  0  0  0  0  0  0  0  0  0  0  0
   30.5381  -24.3681  -35.9253 C   0  0  0  0  0  0  0  0  0  0  0  0
   31.0365  -23.5204  -35.0310 N   0  0  0  0  0  0  0  0  0  0  0  0
   30.6612  -22.2271  -34.9792 C   0  0  0  0  0  0  0  0  0  0  0  0
   29.7509  -21.7987  -35.8712 N   0  0  0  0  0  0  0  0  0  0  0  0
   29.1917  -22.5768  -36.8102 C   0  0  0  0  0  0  0  0  0  0  0  0
   28.2410  -22.0953  -37.7300 N   0  0  0  0  0  0  0  0  0  0  0  0
   28.0314  -20.7244  -38.0138 C   0  0  0  0  0  0  0  0  0  0  0  0
   29.0452  -19.7993  -37.8715 C   0  0  0  0  0  0  0  0  0  0  0  0
   28.8982  -18.4537  -38.1397 C   0  0  0  0  0  0  0  0  0  0  0  0
   30.1992  -17.2979  -37.9569 Cl  0  0  0  0  0  0  0  0  0  0  0  0
   27.6705  -17.9623  -38.5805 C   0  0  0  0  0  0  0  0  0  0  0  0
   27.5096  -16.6430  -38.8496 F   0  0  0  0  0  0  0  0  0  0  0  0
   26.6522  -18.8760  -38.7255 C   0  0  0  0  0  0  0  0  0  0  0  0
   26.8098  -20.2257  -38.4543 C   0  0  0  0  0  0  0  0  0  0  0  0
 20 19  2  0
 20 21  1  0
 18 13  1  0
 18 17  2  0
 18 19  1  0
 17 16  1  0
 17 22  1  0
 22 21  2  0
 22 23  1  0
 15 14  1  0
 30 28  1  0
 30 31  2  0
 31 24  1  0
 25 24  2  0
 25 26  1  0
 13 12  2  0
 16 11  2  0
  8  7  1  0
  8  9  1  0
  9 10  1  0
  2  1  1  0
  2  3  1  0
  4  3  1  0
  4  5  1  0
  7  6  1  0
  1  6  1  0
  5  6  1  0
 28 26  2  0
 28 29  1  0
 26 27  1  0
 24 23  1  0
 12 11  1  0
 12 14  1  0
 11 10  1  0
M  CHG  1   6   1
M  END
$$$$
