
     RDKit          3D

 31 34  0  0  0  0  0  0  0  0999 V2000
   25.9795  -28.9903  -42.5197 C   0  0  0  0  0  0  0  0  0  0  0  0
   25.3781  -29.4783  -43.8177 C   0  0  0  0  0  0  0  0  0  0  0  0
   26.1704  -30.4820  -44.4062 O   0  0  0  0  0  0  0  0  0  0  0  0
   26.3762  -31.5266  -43.4802 C   0  0  0  0  0  0  0  0  0  0  0  0
   27.0765  -31.0360  -42.2319 C   0  0  0  0  0  0  0  0  0  0  0  0
   27.2733  -29.6173  -42.3672 N   0  0  0  0  0  4  0  0  0  0  0  0
   28.0297  -29.0505  -41.2728 C   0  0  0  0  0  0  0  0  0  0  0  0
   27.6778  -27.5958  -41.0388 C   0  0  0  0  0  0  0  0  0  0  0  0
   27.7265  -27.3473  -39.5522 C   0  0  0  0  0  0  0  0  0  0  0  0
   29.0171  -27.1713  -39.0657 O   0  0  0  0  0  0  0  0  0  0  0  0
   29.4521  -26.2452  -38.1512 C   0  0  0  0  0  0  0  0  0  0  0  0
   30.3208  -26.6937  -37.1607 C   0  0  0  0  0  0  0  0  0  0  0  0
   30.8114  -25.8356  -36.1961 C   0  0  0  0  0  0  0  0  0  0  0  0
   30.7176  -28.0185  -37.1152 O   0  0  0  0  0  0  0  0  0  0  0  0
   30.3145  -28.8314  -36.0371 C   0  0  0  0  0  0  0  0  0  0  0  0
   29.0793  -24.9198  -38.1644 C   0  0  0  0  0  0  0  0  0  0  0  0
   29.5538  -24.0408  -37.2125 C   0  0  0  0  0  0  0  0  0  0  0  0
   30.4309  -24.5022  -36.2151 C   0  0  0  0  0  0  0  0  0  0  0  0
   30.8676  -23.6379  -35.3046 N   0  0  0  0  0  0  0  0  0  0  0  0
   30.4975  -22.3421  -35.3076 C   0  0  0  0  0  0  0  0  0  0  0  0
   29.6577  -21.9287  -36.2728 N   0  0  0  0  0  0  0  0  0  0  0  0
   29.1640  -22.7241  -37.2338 C   0  0  0  0  0  0  0  0  0  0  0  0
   28.2862  -22.2580  -38.2308 N   0  0  0  0  0  0  0  0  0  0  0  0
   28.1116  -20.8930  -38.5627 C   0  0  0  0  0  0  0  0  0  0  0  0
   29.1776  -20.0172  -38.5810 C   0  0  0  0  0  0  0  0  0  0  0  0
   29.0655  -18.6800  -38.9029 C   0  0  0  0  0  0  0  0  0  0  0  0
   30.4322  -17.5874  -38.9245 Cl  0  0  0  0  0  0  0  0  0  0  0  0
   27.8211  -18.1458  -39.2330 C   0  0  0  0  0  0  0  0  0  0  0  0
   27.6940  -16.8342  -39.5527 F   0  0  0  0  0  0  0  0  0  0  0  0
   26.7508  -19.0101  -39.2174 C   0  0  0  0  0  0  0  0  0  0  0  0
   26.8735  -20.3518  -38.8935 C   0  0  0  0  0  0  0  0  0  0  0  0
 20 19  2  0
 20 21  1  0
 18 13  1  0
 18 17  2  0
 18 19  1  0
 17 16  1  0
 17 22  1  0
 22 21  2  0
 22 23  1  0
 15 14  1  0
 30 28  1  0
 30 31  2  0
 31 24  1  0
 25 24  2  0
 25 26  1  0
 13 12  2  0
 16 11  2  0
  8  7  1  0
  8  9  1  0
  9 10  1  0
  2  1  1  0
  2  3  1  0
  4  3  1  0
  4  5  1  0
  7  6  1  0
  1  6  1  0
  5  6  1  0
 28 26  2  0
 28 29  1  0
 26 27  1  0
 24 23  1  0
 12 11  1  0
 12 14  1  0
 11 10  1  0
M  CHG  1   6   1
M  END
$$$$
