
     RDKit          3D

 31 34  0  0  0  0  0  0  0  0999 V2000
   26.0749  -29.0780  -42.9738 C   0  0  0  0  0  0  0  0  0  0  0  0
   24.8180  -29.8574  -42.6616 C   0  0  0  0  0  0  0  0  0  0  0  0
   24.0248  -29.1931  -41.7071 O   0  0  0  0  0  0  0  0  0  0  0  0
   23.7508  -27.8815  -42.1494 C   0  0  0  0  0  0  0  0  0  0  0  0
   25.0206  -27.0844  -42.3531 C   0  0  0  0  0  0  0  0  0  0  0  0
   26.1336  -27.9510  -42.0701 N   0  0  0  0  0  4  0  0  0  0  0  0
   27.4058  -27.2663  -42.1323 C   0  0  0  0  0  0  0  0  0  0  0  0
   27.5824  -26.3003  -40.9790 C   0  0  0  0  0  0  0  0  0  0  0  0
   29.0607  -26.1781  -40.7077 C   0  0  0  0  0  0  0  0  0  0  0  0
   29.4162  -26.5542  -39.4172 O   0  0  0  0  0  0  0  0  0  0  0  0
   29.7588  -25.7389  -38.3678 C   0  0  0  0  0  0  0  0  0  0  0  0
   30.5230  -26.3037  -37.3510 C   0  0  0  0  0  0  0  0  0  0  0  0
   30.9157  -25.5622  -36.2539 C   0  0  0  0  0  0  0  0  0  0  0  0
   30.9111  -27.6304  -37.4118 O   0  0  0  0  0  0  0  0  0  0  0  0
   31.3036  -28.2977  -36.2345 C   0  0  0  0  0  0  0  0  0  0  0  0
   29.3913  -24.4154  -38.2725 C   0  0  0  0  0  0  0  0  0  0  0  0
   29.7693  -23.6515  -37.1873 C   0  0  0  0  0  0  0  0  0  0  0  0
   30.5412  -24.2299  -36.1643 C   0  0  0  0  0  0  0  0  0  0  0  0
   30.8857  -23.4756  -35.1255 N   0  0  0  0  0  0  0  0  0  0  0  0
   30.5198  -22.1827  -35.0231 C   0  0  0  0  0  0  0  0  0  0  0  0
   29.7817  -21.6559  -36.0158 N   0  0  0  0  0  0  0  0  0  0  0  0
   29.3857  -22.3355  -37.1027 C   0  0  0  0  0  0  0  0  0  0  0  0
   28.6131  -21.7525  -38.1249 N   0  0  0  0  0  0  0  0  0  0  0  0
   28.2608  -20.3823  -38.1731 C   0  0  0  0  0  0  0  0  0  0  0  0
   28.4469  -19.6336  -39.3171 C   0  0  0  0  0  0  0  0  0  0  0  0
   28.1162  -18.2979  -39.4213 C   0  0  0  0  0  0  0  0  0  0  0  0
   28.3566  -17.3681  -40.8840 Cl  0  0  0  0  0  0  0  0  0  0  0  0
   27.5610  -17.6316  -38.3301 C   0  0  0  0  0  0  0  0  0  0  0  0
   27.2293  -16.3196  -38.4163 F   0  0  0  0  0  0  0  0  0  0  0  0
   27.3714  -18.3684  -37.1838 C   0  0  0  0  0  0  0  0  0  0  0  0
   27.7062  -19.7097  -37.0891 C   0  0  0  0  0  0  0  0  0  0  0  0
 20 19  2  0
 20 21  1  0
 18 13  1  0
 18 17  2  0
 18 19  1  0
 17 16  1  0
 17 22  1  0
 22 21  2  0
 22 23  1  0
 15 14  1  0
 30 28  1  0
 30 31  2  0
 31 24  1  0
 25 24  2  0
 25 26  1  0
 13 12  2  0
 16 11  2  0
  8  7  1  0
  8  9  1  0
  9 10  1  0
  2  1  1  0
  2  3  1  0
  4  3  1  0
  4  5  1  0
  7  6  1  0
  1  6  1  0
  5  6  1  0
 28 26  2  0
 28 29  1  0
 26 27  1  0
 24 23  1  0
 12 11  1  0
 12 14  1  0
 11 10  1  0
M  CHG  1   6   1
M  END
$$$$
