
     RDKit          3D

 31 34  0  0  0  0  0  0  0  0999 V2000
   27.5160  -30.3863  -42.6861 C   0  0  0  0  0  0  0  0  0  0  0  0
   26.6877  -31.2363  -43.6221 C   0  0  0  0  0  0  0  0  0  0  0  0
   25.3147  -31.1363  -43.3284 O   0  0  0  0  0  0  0  0  0  0  0  0
   24.9249  -29.7802  -43.3431 C   0  0  0  0  0  0  0  0  0  0  0  0
   25.6919  -28.9679  -42.3228 C   0  0  0  0  0  0  0  0  0  0  0  0
   26.6315  -29.8462  -41.6781 N   0  0  0  0  0  4  0  0  0  0  0  0
   27.3549  -29.2011  -40.6050 C   0  0  0  0  0  0  0  0  0  0  0  0
   27.9111  -27.8574  -41.0289 C   0  0  0  0  0  0  0  0  0  0  0  0
   27.8916  -26.9534  -39.8221 C   0  0  0  0  0  0  0  0  0  0  0  0
   29.1009  -26.9246  -39.1365 O   0  0  0  0  0  0  0  0  0  0  0  0
   29.5130  -26.0141  -38.1961 C   0  0  0  0  0  0  0  0  0  0  0  0
   30.4375  -26.4530  -37.2530 C   0  0  0  0  0  0  0  0  0  0  0  0
   30.9106  -25.6093  -36.2671 C   0  0  0  0  0  0  0  0  0  0  0  0
   30.9094  -27.7535  -37.2773 O   0  0  0  0  0  0  0  0  0  0  0  0
   31.3769  -28.3489  -36.0889 C   0  0  0  0  0  0  0  0  0  0  0  0
   29.0661  -24.7130  -38.1401 C   0  0  0  0  0  0  0  0  0  0  0  0
   29.5216  -23.8487  -37.1656 C   0  0  0  0  0  0  0  0  0  0  0  0
   30.4555  -24.3003  -36.2164 C   0  0  0  0  0  0  0  0  0  0  0  0
   30.8726  -23.4511  -35.2828 N   0  0  0  0  0  0  0  0  0  0  0  0
   30.4305  -22.1797  -35.2180 C   0  0  0  0  0  0  0  0  0  0  0  0
   29.5376  -21.7753  -36.1383 N   0  0  0  0  0  0  0  0  0  0  0  0
   29.0581  -22.5569  -37.1176 C   0  0  0  0  0  0  0  0  0  0  0  0
   28.1232  -22.1007  -38.0662 N   0  0  0  0  0  0  0  0  0  0  0  0
   27.8376  -20.7357  -38.3095 C   0  0  0  0  0  0  0  0  0  0  0  0
   28.8305  -19.7782  -38.2769 C   0  0  0  0  0  0  0  0  0  0  0  0
   28.6096  -18.4366  -38.5122 C   0  0  0  0  0  0  0  0  0  0  0  0
   29.8850  -17.2392  -38.4705 Cl  0  0  0  0  0  0  0  0  0  0  0  0
   27.3236  -17.9836  -38.8016 C   0  0  0  0  0  0  0  0  0  0  0  0
   27.0897  -16.6687  -39.0364 F   0  0  0  0  0  0  0  0  0  0  0  0
   26.3254  -18.9298  -38.8361 C   0  0  0  0  0  0  0  0  0  0  0  0
   26.5574  -20.2752  -38.5991 C   0  0  0  0  0  0  0  0  0  0  0  0
 20 19  2  0
 20 21  1  0
 18 13  1  0
 18 17  2  0
 18 19  1  0
 17 16  1  0
 17 22  1  0
 22 21  2  0
 22 23  1  0
 15 14  1  0
 30 28  1  0
 30 31  2  0
 31 24  1  0
 25 24  2  0
 25 26  1  0
 13 12  2  0
 16 11  2  0
  8  7  1  0
  8  9  1  0
  9 10  1  0
  2  1  1  0
  2  3  1  0
  4  3  1  0
  4  5  1  0
  7  6  1  0
  1  6  1  0
  5  6  1  0
 28 26  2  0
 28 29  1  0
 26 27  1  0
 24 23  1  0
 12 11  1  0
 12 14  1  0
 11 10  1  0
M  CHG  1   6   1
M  END
$$$$
