
     RDKit          3D

 31 34  0  0  0  0  0  0  0  0999 V2000
   25.9117  -28.6180  -42.9113 C   0  0  0  0  0  0  0  0  0  0  0  0
   25.5380  -29.3082  -44.2031 C   0  0  0  0  0  0  0  0  0  0  0  0
   26.0385  -30.6232  -44.2469 O   0  0  0  0  0  0  0  0  0  0  0  0
   25.6018  -31.3342  -43.1090 C   0  0  0  0  0  0  0  0  0  0  0  0
   26.0779  -30.6845  -41.8282 C   0  0  0  0  0  0  0  0  0  0  0  0
   26.8024  -29.4931  -42.1827 N   0  0  0  0  0  4  0  0  0  0  0  0
   27.3966  -28.8384  -41.0384 C   0  0  0  0  0  0  0  0  0  0  0  0
   28.0790  -27.5419  -41.4229 C   0  0  0  0  0  0  0  0  0  0  0  0
   27.9191  -26.5821  -40.2708 C   0  0  0  0  0  0  0  0  0  0  0  0
   28.8196  -26.8096  -39.2361 O   0  0  0  0  0  0  0  0  0  0  0  0
   29.2972  -25.9037  -38.3226 C   0  0  0  0  0  0  0  0  0  0  0  0
   30.2088  -26.3742  -37.3822 C   0  0  0  0  0  0  0  0  0  0  0  0
   30.7441  -25.5375  -36.4225 C   0  0  0  0  0  0  0  0  0  0  0  0
   30.6047  -27.7000  -37.3829 O   0  0  0  0  0  0  0  0  0  0  0  0
   31.3602  -28.2037  -36.3054 C   0  0  0  0  0  0  0  0  0  0  0  0
   28.9268  -24.5780  -38.2906 C   0  0  0  0  0  0  0  0  0  0  0  0
   29.4455  -23.7200  -37.3425 C   0  0  0  0  0  0  0  0  0  0  0  0
   30.3658  -24.2036  -36.3958 C   0  0  0  0  0  0  0  0  0  0  0  0
   30.8448  -23.3594  -35.4877 N   0  0  0  0  0  0  0  0  0  0  0  0
   30.4775  -22.0635  -35.4463 C   0  0  0  0  0  0  0  0  0  0  0  0
   29.5958  -21.6287  -36.3635 N   0  0  0  0  0  0  0  0  0  0  0  0
   29.0578  -22.4028  -37.3181 C   0  0  0  0  0  0  0  0  0  0  0  0
   28.1367  -21.9146  -38.2642 N   0  0  0  0  0  0  0  0  0  0  0  0
   27.8469  -20.5426  -38.4582 C   0  0  0  0  0  0  0  0  0  0  0  0
   28.8453  -19.5904  -38.4499 C   0  0  0  0  0  0  0  0  0  0  0  0
   28.6202  -18.2422  -38.6397 C   0  0  0  0  0  0  0  0  0  0  0  0
   29.9025  -17.0515  -38.6300 Cl  0  0  0  0  0  0  0  0  0  0  0  0
   27.3240  -17.7767  -38.8541 C   0  0  0  0  0  0  0  0  0  0  0  0
   27.0859  -16.4552  -39.0435 F   0  0  0  0  0  0  0  0  0  0  0  0
   26.3203  -18.7176  -38.8639 C   0  0  0  0  0  0  0  0  0  0  0  0
   26.5565  -20.0696  -38.6730 C   0  0  0  0  0  0  0  0  0  0  0  0
 20 19  2  0
 20 21  1  0
 18 13  1  0
 18 17  2  0
 18 19  1  0
 17 16  1  0
 17 22  1  0
 22 21  2  0
 22 23  1  0
 15 14  1  0
 30 28  1  0
 30 31  2  0
 31 24  1  0
 25 24  2  0
 25 26  1  0
 13 12  2  0
 16 11  2  0
  8  7  1  0
  8  9  1  0
  9 10  1  0
  2  1  1  0
  2  3  1  0
  4  3  1  0
  4  5  1  0
  7  6  1  0
  1  6  1  0
  5  6  1  0
 28 26  2  0
 28 29  1  0
 26 27  1  0
 24 23  1  0
 12 11  1  0
 12 14  1  0
 11 10  1  0
M  CHG  1   6   1
M  END
$$$$
