
     RDKit          3D

 31 34  0  0  0  0  0  0  0  0999 V2000
   25.6144  -27.9560  -41.7971 C   0  0  0  0  0  0  0  0  0  0  0  0
   24.8065  -27.8293  -43.0683 C   0  0  0  0  0  0  0  0  0  0  0  0
   25.5727  -28.1656  -44.2002 O   0  0  0  0  0  0  0  0  0  0  0  0
   26.1204  -29.4554  -44.0351 C   0  0  0  0  0  0  0  0  0  0  0  0
   27.0122  -29.5311  -42.8151 C   0  0  0  0  0  0  0  0  0  0  0  0
   26.9813  -28.2466  -42.1678 N   0  0  0  0  0  4  0  0  0  0  0  0
   27.8823  -28.1669  -41.0395 C   0  0  0  0  0  0  0  0  0  0  0  0
   27.7054  -26.8755  -40.2678 C   0  0  0  0  0  0  0  0  0  0  0  0
   27.9160  -27.1838  -38.8068 C   0  0  0  0  0  0  0  0  0  0  0  0
   29.2106  -26.9249  -38.3707 O   0  0  0  0  0  0  0  0  0  0  0  0
   29.6311  -25.9234  -37.5320 C   0  0  0  0  0  0  0  0  0  0  0  0
   30.4622  -26.2888  -36.4771 C   0  0  0  0  0  0  0  0  0  0  0  0
   30.9356  -25.3511  -35.5804 C   0  0  0  0  0  0  0  0  0  0  0  0
   30.8376  -27.6083  -36.2970 O   0  0  0  0  0  0  0  0  0  0  0  0
   31.7206  -27.9466  -35.2524 C   0  0  0  0  0  0  0  0  0  0  0  0
   29.2787  -24.6006  -37.6792 C   0  0  0  0  0  0  0  0  0  0  0  0
   29.7369  -23.6430  -36.7976 C   0  0  0  0  0  0  0  0  0  0  0  0
   30.5759  -24.0206  -35.7344 C   0  0  0  0  0  0  0  0  0  0  0  0
   30.9973  -23.0810  -34.8939 N   0  0  0  0  0  0  0  0  0  0  0  0
   30.6468  -21.7867  -35.0282 C   0  0  0  0  0  0  0  0  0  0  0  0
   29.8434  -21.4544  -36.0537 N   0  0  0  0  0  0  0  0  0  0  0  0
   29.3677  -22.3293  -36.9527 C   0  0  0  0  0  0  0  0  0  0  0  0
   28.5280  -21.9470  -38.0159 N   0  0  0  0  0  0  0  0  0  0  0  0
   28.2624  -20.6043  -38.3771 C   0  0  0  0  0  0  0  0  0  0  0  0
   29.2658  -19.6577  -38.4073 C   0  0  0  0  0  0  0  0  0  0  0  0
   29.0645  -18.3382  -38.7575 C   0  0  0  0  0  0  0  0  0  0  0  0
   30.3530  -17.1547  -38.7936 Cl  0  0  0  0  0  0  0  0  0  0  0  0
   27.7888  -17.8978  -39.1060 C   0  0  0  0  0  0  0  0  0  0  0  0
   27.5743  -16.6048  -39.4536 F   0  0  0  0  0  0  0  0  0  0  0  0
   26.7803  -18.8332  -39.0788 C   0  0  0  0  0  0  0  0  0  0  0  0
   26.9926  -20.1564  -38.7264 C   0  0  0  0  0  0  0  0  0  0  0  0
 20 19  2  0
 20 21  1  0
 18 13  1  0
 18 17  2  0
 18 19  1  0
 17 16  1  0
 17 22  1  0
 22 21  2  0
 22 23  1  0
 15 14  1  0
 30 28  1  0
 30 31  2  0
 31 24  1  0
 25 24  2  0
 25 26  1  0
 13 12  2  0
 16 11  2  0
  8  7  1  0
  8  9  1  0
  9 10  1  0
  2  1  1  0
  2  3  1  0
  4  3  1  0
  4  5  1  0
  7  6  1  0
  1  6  1  0
  5  6  1  0
 28 26  2  0
 28 29  1  0
 26 27  1  0
 24 23  1  0
 12 11  1  0
 12 14  1  0
 11 10  1  0
M  CHG  1   6   1
M  END
$$$$
