
     RDKit          3D

 31 34  0  0  0  0  0  0  0  0999 V2000
   24.9298  -30.2075  -40.8088 C   0  0  0  0  0  0  0  0  0  0  0  0
   24.5106  -31.1154  -41.9422 C   0  0  0  0  0  0  0  0  0  0  0  0
   25.4784  -31.1428  -42.9639 O   0  0  0  0  0  0  0  0  0  0  0  0
   26.7305  -31.5006  -42.4206 C   0  0  0  0  0  0  0  0  0  0  0  0
   27.1812  -30.5177  -41.3623 C   0  0  0  0  0  0  0  0  0  0  0  0
   26.1444  -29.5323  -41.2077 N   0  0  0  0  0  4  0  0  0  0  0  0
   26.5090  -28.4757  -40.2902 C   0  0  0  0  0  0  0  0  0  0  0  0
   27.8966  -27.9381  -40.5731 C   0  0  0  0  0  0  0  0  0  0  0  0
   28.0628  -26.6641  -39.7837 C   0  0  0  0  0  0  0  0  0  0  0  0
   28.8883  -26.8079  -38.6741 O   0  0  0  0  0  0  0  0  0  0  0  0
   29.2275  -25.8529  -37.7488 C   0  0  0  0  0  0  0  0  0  0  0  0
   29.9366  -26.2797  -36.6299 C   0  0  0  0  0  0  0  0  0  0  0  0
   30.3216  -25.3919  -35.6444 C   0  0  0  0  0  0  0  0  0  0  0  0
   30.2759  -27.6119  -36.4736 O   0  0  0  0  0  0  0  0  0  0  0  0
   31.3286  -27.9672  -35.6070 C   0  0  0  0  0  0  0  0  0  0  0  0
   28.9076  -24.5192  -37.8698 C   0  0  0  0  0  0  0  0  0  0  0  0
   29.2791  -23.6106  -36.9000 C   0  0  0  0  0  0  0  0  0  0  0  0
   29.9952  -24.0502  -35.7726 C   0  0  0  0  0  0  0  0  0  0  0  0
   30.3344  -23.1571  -34.8484 N   0  0  0  0  0  0  0  0  0  0  0  0
   30.0147  -21.8525  -34.9577 C   0  0  0  0  0  0  0  0  0  0  0  0
   29.3295  -21.4605  -36.0461 N   0  0  0  0  0  0  0  0  0  0  0  0
   28.9432  -22.2855  -37.0310 C   0  0  0  0  0  0  0  0  0  0  0  0
   28.2266  -21.8412  -38.1584 N   0  0  0  0  0  0  0  0  0  0  0  0
   27.9778  -20.4802  -38.4578 C   0  0  0  0  0  0  0  0  0  0  0  0
   28.9930  -19.5459  -38.4454 C   0  0  0  0  0  0  0  0  0  0  0  0
   28.8082  -18.2093  -38.7349 C   0  0  0  0  0  0  0  0  0  0  0  0
   30.1114  -17.0417  -38.7179 Cl  0  0  0  0  0  0  0  0  0  0  0  0
   27.5381  -17.7376  -39.0620 C   0  0  0  0  0  0  0  0  0  0  0  0
   27.3397  -16.4275  -39.3502 F   0  0  0  0  0  0  0  0  0  0  0  0
   26.5180  -18.6606  -39.0769 C   0  0  0  0  0  0  0  0  0  0  0  0
   26.7137  -20.0011  -38.7854 C   0  0  0  0  0  0  0  0  0  0  0  0
 20 19  2  0
 20 21  1  0
 18 13  1  0
 18 17  2  0
 18 19  1  0
 17 16  1  0
 17 22  1  0
 22 21  2  0
 22 23  1  0
 15 14  1  0
 30 28  1  0
 30 31  2  0
 31 24  1  0
 25 24  2  0
 25 26  1  0
 13 12  2  0
 16 11  2  0
  8  7  1  0
  8  9  1  0
  9 10  1  0
  2  1  1  0
  2  3  1  0
  4  3  1  0
  4  5  1  0
  7  6  1  0
  1  6  1  0
  5  6  1  0
 28 26  2  0
 28 29  1  0
 26 27  1  0
 24 23  1  0
 12 11  1  0
 12 14  1  0
 11 10  1  0
M  CHG  1   6   1
M  END
$$$$
