
     RDKit          3D

 31 34  0  0  0  0  0  0  0  0999 V2000
   25.5413  -27.5980  -43.2579 C   0  0  0  0  0  0  0  0  0  0  0  0
   25.1088  -28.3696  -44.4836 C   0  0  0  0  0  0  0  0  0  0  0  0
   25.9841  -29.4385  -44.7537 O   0  0  0  0  0  0  0  0  0  0  0  0
   26.0963  -30.2589  -43.6111 C   0  0  0  0  0  0  0  0  0  0  0  0
   26.6329  -29.4908  -42.4231 C   0  0  0  0  0  0  0  0  0  0  0  0
   26.8186  -28.1237  -42.8310 N   0  0  0  0  0  4  0  0  0  0  0  0
   27.4279  -27.3107  -41.8021 C   0  0  0  0  0  0  0  0  0  0  0  0
   27.7505  -28.1194  -40.5626 C   0  0  0  0  0  0  0  0  0  0  0  0
   27.7681  -27.1713  -39.3901 C   0  0  0  0  0  0  0  0  0  0  0  0
   29.0304  -27.0134  -38.8289 O   0  0  0  0  0  0  0  0  0  0  0  0
   29.4434  -26.0476  -37.9458 C   0  0  0  0  0  0  0  0  0  0  0  0
   30.2592  -26.4577  -36.8955 C   0  0  0  0  0  0  0  0  0  0  0  0
   30.7241  -25.5581  -35.9563 C   0  0  0  0  0  0  0  0  0  0  0  0
   30.6275  -27.7849  -36.7629 O   0  0  0  0  0  0  0  0  0  0  0  0
   31.7687  -28.1206  -36.0076 C   0  0  0  0  0  0  0  0  0  0  0  0
   29.0976  -24.7185  -38.0451 C   0  0  0  0  0  0  0  0  0  0  0  0
   29.5476  -23.7984  -37.1205 C   0  0  0  0  0  0  0  0  0  0  0  0
   30.3712  -24.2212  -36.0622 C   0  0  0  0  0  0  0  0  0  0  0  0
   30.7848  -23.3173  -35.1798 N   0  0  0  0  0  0  0  0  0  0  0  0
   30.4408  -22.0172  -35.2673 C   0  0  0  0  0  0  0  0  0  0  0  0
   29.6520  -21.6413  -36.2892 N   0  0  0  0  0  0  0  0  0  0  0  0
   29.1851  -22.4782  -37.2282 C   0  0  0  0  0  0  0  0  0  0  0  0
   28.3608  -22.0507  -38.2863 N   0  0  0  0  0  0  0  0  0  0  0  0
   28.0448  -20.6966  -38.5520 C   0  0  0  0  0  0  0  0  0  0  0  0
   29.0126  -19.7139  -38.5168 C   0  0  0  0  0  0  0  0  0  0  0  0
   28.7617  -18.3814  -38.7732 C   0  0  0  0  0  0  0  0  0  0  0  0
   30.0058  -17.1517  -38.7277 Cl  0  0  0  0  0  0  0  0  0  0  0  0
   27.4694  -17.9650  -39.0883 C   0  0  0  0  0  0  0  0  0  0  0  0
   27.2062  -16.6596  -39.3440 F   0  0  0  0  0  0  0  0  0  0  0  0
   26.4960  -18.9366  -39.1257 C   0  0  0  0  0  0  0  0  0  0  0  0
   26.7580  -20.2725  -38.8674 C   0  0  0  0  0  0  0  0  0  0  0  0
 20 19  2  0
 20 21  1  0
 18 13  1  0
 18 17  2  0
 18 19  1  0
 17 16  1  0
 17 22  1  0
 22 21  2  0
 22 23  1  0
 15 14  1  0
 30 28  1  0
 30 31  2  0
 31 24  1  0
 25 24  2  0
 25 26  1  0
 13 12  2  0
 16 11  2  0
  8  7  1  0
  8  9  1  0
  9 10  1  0
  2  1  1  0
  2  3  1  0
  4  3  1  0
  4  5  1  0
  7  6  1  0
  1  6  1  0
  5  6  1  0
 28 26  2  0
 28 29  1  0
 26 27  1  0
 24 23  1  0
 12 11  1  0
 12 14  1  0
 11 10  1  0
M  CHG  1   6   1
M  END
$$$$
