
     RDKit          3D

 31 34  0  0  0  0  0  0  0  0999 V2000
   30.2188  -31.2269  -37.7624 C   0  0  0  0  0  0  0  0  0  0  0  0
   31.3807  -32.1144  -37.3788 C   0  0  0  0  0  0  0  0  0  0  0  0
   32.6051  -31.4255  -37.4674 O   0  0  0  0  0  0  0  0  0  0  0  0
   32.5442  -30.2498  -36.6896 C   0  0  0  0  0  0  0  0  0  0  0  0
   31.4416  -29.3263  -37.1593 C   0  0  0  0  0  0  0  0  0  0  0  0
   30.7577  -29.9755  -38.2459 N   0  0  0  0  0  4  0  0  0  0  0  0
   29.7426  -29.1395  -38.8473 C   0  0  0  0  0  0  0  0  0  0  0  0
   30.2703  -27.7567  -39.1699 C   0  0  0  0  0  0  0  0  0  0  0  0
   29.3947  -26.7560  -38.4585 C   0  0  0  0  0  0  0  0  0  0  0  0
   28.1967  -26.5059  -39.1184 O   0  0  0  0  0  0  0  0  0  0  0  0
   27.7153  -25.2986  -39.5587 C   0  0  0  0  0  0  0  0  0  0  0  0
   26.9580  -25.3073  -40.7264 C   0  0  0  0  0  0  0  0  0  0  0  0
   26.4317  -24.1415  -41.2474 C   0  0  0  0  0  0  0  0  0  0  0  0
   26.7116  -26.4902  -41.4006 O   0  0  0  0  0  0  0  0  0  0  0  0
   25.9615  -26.4709  -42.5932 C   0  0  0  0  0  0  0  0  0  0  0  0
   27.9396  -24.1021  -38.9155 C   0  0  0  0  0  0  0  0  0  0  0  0
   27.4262  -22.9224  -39.4142 C   0  0  0  0  0  0  0  0  0  0  0  0
   26.6624  -22.9400  -40.5946 C   0  0  0  0  0  0  0  0  0  0  0  0
   26.1858  -21.7894  -41.0593 N   0  0  0  0  0  0  0  0  0  0  0  0
   26.4113  -20.6147  -40.4386 C   0  0  0  0  0  0  0  0  0  0  0  0
   27.1452  -20.6277  -39.3120 N   0  0  0  0  0  0  0  0  0  0  0  0
   27.6679  -21.7361  -38.7659 C   0  0  0  0  0  0  0  0  0  0  0  0
   28.4319  -21.7141  -37.5837 N   0  0  0  0  0  0  0  0  0  0  0  0
   28.7189  -20.5423  -36.8432 C   0  0  0  0  0  0  0  0  0  0  0  0
   28.9498  -19.3356  -37.4711 C   0  0  0  0  0  0  0  0  0  0  0  0
   29.2276  -18.1626  -36.7992 C   0  0  0  0  0  0  0  0  0  0  0  0
   29.5127  -16.6414  -37.6157 Cl  0  0  0  0  0  0  0  0  0  0  0  0
   29.2879  -18.1562  -35.4067 C   0  0  0  0  0  0  0  0  0  0  0  0
   29.5584  -17.0120  -34.7312 F   0  0  0  0  0  0  0  0  0  0  0  0
   29.0597  -19.3543  -34.7700 C   0  0  0  0  0  0  0  0  0  0  0  0
   28.7808  -20.5269  -35.4536 C   0  0  0  0  0  0  0  0  0  0  0  0
 20 19  2  0
 20 21  1  0
 18 13  1  0
 18 17  2  0
 18 19  1  0
 17 16  1  0
 17 22  1  0
 22 21  2  0
 22 23  1  0
 15 14  1  0
 30 28  1  0
 30 31  2  0
 31 24  1  0
 25 24  2  0
 25 26  1  0
 13 12  2  0
 16 11  2  0
  8  7  1  0
  8  9  1  0
  9 10  1  0
  2  1  1  0
  2  3  1  0
  4  3  1  0
  4  5  1  0
  7  6  1  0
  1  6  1  0
  5  6  1  0
 28 26  2  0
 28 29  1  0
 26 27  1  0
 24 23  1  0
 12 11  1  0
 12 14  1  0
 11 10  1  0
M  CHG  1   6   1
M  END
$$$$
