
     RDKit          3D

 31 34  0  0  0  0  0  0  0  0999 V2000
   27.9043  -29.9897  -42.9955 C   0  0  0  0  0  0  0  0  0  0  0  0
   27.1560  -31.1383  -43.6322 C   0  0  0  0  0  0  0  0  0  0  0  0
   26.1362  -31.6181  -42.7888 O   0  0  0  0  0  0  0  0  0  0  0  0
   25.2837  -30.5544  -42.4242 C   0  0  0  0  0  0  0  0  0  0  0  0
   26.0343  -29.4631  -41.6928 C   0  0  0  0  0  0  0  0  0  0  0  0
   27.4211  -29.8425  -41.6409 N   0  0  0  0  0  4  0  0  0  0  0  0
   28.2252  -28.9194  -40.8711 C   0  0  0  0  0  0  0  0  0  0  0  0
   27.4025  -27.7644  -40.3388 C   0  0  0  0  0  0  0  0  0  0  0  0
   28.3468  -26.6238  -40.0537 C   0  0  0  0  0  0  0  0  0  0  0  0
   29.0428  -26.7711  -38.8591 O   0  0  0  0  0  0  0  0  0  0  0  0
   29.4200  -25.7882  -37.9788 C   0  0  0  0  0  0  0  0  0  0  0  0
   30.2208  -26.1719  -36.9071 C   0  0  0  0  0  0  0  0  0  0  0  0
   30.6500  -25.2536  -35.9689 C   0  0  0  0  0  0  0  0  0  0  0  0
   30.6099  -27.4906  -36.7517 O   0  0  0  0  0  0  0  0  0  0  0  0
   31.4352  -27.8519  -35.6683 C   0  0  0  0  0  0  0  0  0  0  0  0
   29.0528  -24.4668  -38.1004 C   0  0  0  0  0  0  0  0  0  0  0  0
   29.4668  -23.5285  -37.1773 C   0  0  0  0  0  0  0  0  0  0  0  0
   30.2755  -23.9246  -36.0974 C   0  0  0  0  0  0  0  0  0  0  0  0
   30.6544  -23.0036  -35.2171 N   0  0  0  0  0  0  0  0  0  0  0  0
   30.2892  -21.7110  -35.3265 C   0  0  0  0  0  0  0  0  0  0  0  0
   29.5154  -21.3608  -36.3688 N   0  0  0  0  0  0  0  0  0  0  0  0
   29.0831  -22.2163  -37.3076 C   0  0  0  0  0  0  0  0  0  0  0  0
   28.2736  -21.8156  -38.3874 N   0  0  0  0  0  0  0  0  0  0  0  0
   28.0298  -20.4669  -38.7416 C   0  0  0  0  0  0  0  0  0  0  0  0
   28.9827  -19.4892  -38.5418 C   0  0  0  0  0  0  0  0  0  0  0  0
   28.8007  -18.1622  -38.8737 C   0  0  0  0  0  0  0  0  0  0  0  0
   30.0250  -16.9389  -38.6158 Cl  0  0  0  0  0  0  0  0  0  0  0  0
   27.5990  -17.7465  -39.4446 C   0  0  0  0  0  0  0  0  0  0  0  0
   27.4045  -16.4464  -39.7777 F   0  0  0  0  0  0  0  0  0  0  0  0
   26.6413  -18.7130  -39.6480 C   0  0  0  0  0  0  0  0  0  0  0  0
   26.8338  -20.0435  -39.3119 C   0  0  0  0  0  0  0  0  0  0  0  0
 20 19  2  0
 20 21  1  0
 18 13  1  0
 18 17  2  0
 18 19  1  0
 17 16  1  0
 17 22  1  0
 22 21  2  0
 22 23  1  0
 15 14  1  0
 30 28  1  0
 30 31  2  0
 31 24  1  0
 25 24  2  0
 25 26  1  0
 13 12  2  0
 16 11  2  0
  8  7  1  0
  8  9  1  0
  9 10  1  0
  2  1  1  0
  2  3  1  0
  4  3  1  0
  4  5  1  0
  7  6  1  0
  1  6  1  0
  5  6  1  0
 28 26  2  0
 28 29  1  0
 26 27  1  0
 24 23  1  0
 12 11  1  0
 12 14  1  0
 11 10  1  0
M  CHG  1   6   1
M  END
$$$$
