
     RDKit          3D

 31 34  0  0  0  0  0  0  0  0999 V2000
   26.1085  -30.1328  -41.9445 C   0  0  0  0  0  0  0  0  0  0  0  0
   24.8627  -30.2048  -42.7974 C   0  0  0  0  0  0  0  0  0  0  0  0
   24.9479  -29.3414  -43.9059 O   0  0  0  0  0  0  0  0  0  0  0  0
   26.1204  -29.6249  -44.6379 C   0  0  0  0  0  0  0  0  0  0  0  0
   27.3630  -29.4427  -43.7941 C   0  0  0  0  0  0  0  0  0  0  0  0
   26.9436  -29.0750  -42.4679 N   0  0  0  0  0  4  0  0  0  0  0  0
   28.0548  -28.7726  -41.5934 C   0  0  0  0  0  0  0  0  0  0  0  0
   27.5882  -28.3417  -40.2182 C   0  0  0  0  0  0  0  0  0  0  0  0
   28.0914  -26.9397  -39.9834 C   0  0  0  0  0  0  0  0  0  0  0  0
   29.2373  -26.8908  -39.1975 O   0  0  0  0  0  0  0  0  0  0  0  0
   29.5559  -25.9695  -38.2315 C   0  0  0  0  0  0  0  0  0  0  0  0
   30.3076  -26.4204  -37.1505 C   0  0  0  0  0  0  0  0  0  0  0  0
   30.6761  -25.5673  -36.1288 C   0  0  0  0  0  0  0  0  0  0  0  0
   30.7073  -27.7426  -37.0696 O   0  0  0  0  0  0  0  0  0  0  0  0
   31.4904  -28.1698  -35.9789 C   0  0  0  0  0  0  0  0  0  0  0  0
   29.1763  -24.6468  -38.2775 C   0  0  0  0  0  0  0  0  0  0  0  0
   29.5302  -23.7727  -37.2701 C   0  0  0  0  0  0  0  0  0  0  0  0
   30.2896  -24.2365  -36.1814 C   0  0  0  0  0  0  0  0  0  0  0  0
   30.6108  -23.3770  -35.2197 N   0  0  0  0  0  0  0  0  0  0  0  0
   30.2330  -22.0839  -35.2555 C   0  0  0  0  0  0  0  0  0  0  0  0
   29.5073  -21.6682  -36.3083 N   0  0  0  0  0  0  0  0  0  0  0  0
   29.1348  -22.4587  -37.3262 C   0  0  0  0  0  0  0  0  0  0  0  0
   28.3746  -21.9903  -38.4146 N   0  0  0  0  0  0  0  0  0  0  0  0
   28.0221  -20.6339  -38.6140 C   0  0  0  0  0  0  0  0  0  0  0  0
   28.9728  -19.6343  -38.5875 C   0  0  0  0  0  0  0  0  0  0  0  0
   28.6861  -18.2985  -38.7816 C   0  0  0  0  0  0  0  0  0  0  0  0
   29.9087  -17.0470  -38.7485 Cl  0  0  0  0  0  0  0  0  0  0  0  0
   27.3730  -17.8963  -39.0196 C   0  0  0  0  0  0  0  0  0  0  0  0
   27.0745  -16.5878  -39.2134 F   0  0  0  0  0  0  0  0  0  0  0  0
   26.4165  -18.8848  -39.0476 C   0  0  0  0  0  0  0  0  0  0  0  0
   26.7144  -20.2239  -38.8523 C   0  0  0  0  0  0  0  0  0  0  0  0
 20 19  2  0
 20 21  1  0
 18 13  1  0
 18 17  2  0
 18 19  1  0
 17 16  1  0
 17 22  1  0
 22 21  2  0
 22 23  1  0
 15 14  1  0
 30 28  1  0
 30 31  2  0
 31 24  1  0
 25 24  2  0
 25 26  1  0
 13 12  2  0
 16 11  2  0
  8  7  1  0
  8  9  1  0
  9 10  1  0
  2  1  1  0
  2  3  1  0
  4  3  1  0
  4  5  1  0
  7  6  1  0
  1  6  1  0
  5  6  1  0
 28 26  2  0
 28 29  1  0
 26 27  1  0
 24 23  1  0
 12 11  1  0
 12 14  1  0
 11 10  1  0
M  CHG  1   6   1
M  END
$$$$
