
     RDKit          3D

 31 34  0  0  0  0  0  0  0  0999 V2000
   26.1177  -27.1938  -43.6205 C   0  0  0  0  0  0  0  0  0  0  0  0
   26.1250  -28.1043  -44.8270 C   0  0  0  0  0  0  0  0  0  0  0  0
   25.6922  -29.4018  -44.4946 O   0  0  0  0  0  0  0  0  0  0  0  0
   24.4254  -29.3346  -43.8766 C   0  0  0  0  0  0  0  0  0  0  0  0
   24.4647  -28.5057  -42.6115 C   0  0  0  0  0  0  0  0  0  0  0  0
   25.8022  -27.9973  -42.4607 N   0  0  0  0  0  4  0  0  0  0  0  0
   25.9881  -27.2698  -41.2249 C   0  0  0  0  0  0  0  0  0  0  0  0
   27.4317  -26.8559  -41.0267 C   0  0  0  0  0  0  0  0  0  0  0  0
   27.8797  -27.3866  -39.6882 C   0  0  0  0  0  0  0  0  0  0  0  0
   29.1665  -26.9899  -39.3417 O   0  0  0  0  0  0  0  0  0  0  0  0
   29.5370  -26.0871  -38.3768 C   0  0  0  0  0  0  0  0  0  0  0  0
   30.3791  -26.5480  -37.3691 C   0  0  0  0  0  0  0  0  0  0  0  0
   30.8052  -25.7134  -36.3544 C   0  0  0  0  0  0  0  0  0  0  0  0
   30.8135  -27.8616  -37.3563 O   0  0  0  0  0  0  0  0  0  0  0  0
   31.7148  -28.2892  -36.3612 C   0  0  0  0  0  0  0  0  0  0  0  0
   29.1253  -24.7734  -38.3563 C   0  0  0  0  0  0  0  0  0  0  0  0
   29.5352  -23.9180  -37.3542 C   0  0  0  0  0  0  0  0  0  0  0  0
   30.3858  -24.3917  -36.3397 C   0  0  0  0  0  0  0  0  0  0  0  0
   30.7601  -23.5504  -35.3811 N   0  0  0  0  0  0  0  0  0  0  0  0
   30.3515  -22.2666  -35.3514 C   0  0  0  0  0  0  0  0  0  0  0  0
   29.5383  -21.8410  -36.3340 N   0  0  0  0  0  0  0  0  0  0  0  0
   29.1071  -22.6131  -37.3428 C   0  0  0  0  0  0  0  0  0  0  0  0
   28.2557  -22.1348  -38.3568 N   0  0  0  0  0  0  0  0  0  0  0  0
   27.9157  -20.7720  -38.5334 C   0  0  0  0  0  0  0  0  0  0  0  0
   28.8846  -19.7905  -38.5741 C   0  0  0  0  0  0  0  0  0  0  0  0
   28.6104  -18.4496  -38.7499 C   0  0  0  0  0  0  0  0  0  0  0  0
   29.8556  -17.2213  -38.8032 Cl  0  0  0  0  0  0  0  0  0  0  0  0
   27.2917  -18.0227  -38.8975 C   0  0  0  0  0  0  0  0  0  0  0  0
   27.0052  -16.7089  -39.0722 F   0  0  0  0  0  0  0  0  0  0  0  0
   26.3172  -18.9931  -38.8579 C   0  0  0  0  0  0  0  0  0  0  0  0
   26.6026  -20.3375  -38.6816 C   0  0  0  0  0  0  0  0  0  0  0  0
 20 19  2  0
 20 21  1  0
 18 13  1  0
 18 17  2  0
 18 19  1  0
 17 16  1  0
 17 22  1  0
 22 21  2  0
 22 23  1  0
 15 14  1  0
 30 28  1  0
 30 31  2  0
 31 24  1  0
 25 24  2  0
 25 26  1  0
 13 12  2  0
 16 11  2  0
  8  7  1  0
  8  9  1  0
  9 10  1  0
  2  1  1  0
  2  3  1  0
  4  3  1  0
  4  5  1  0
  7  6  1  0
  1  6  1  0
  5  6  1  0
 28 26  2  0
 28 29  1  0
 26 27  1  0
 24 23  1  0
 12 11  1  0
 12 14  1  0
 11 10  1  0
M  CHG  1   6   1
M  END
$$$$
