
     RDKit          3D

 31 34  0  0  0  0  0  0  0  0999 V2000
   27.6132  -31.2917  -42.6234 C   0  0  0  0  0  0  0  0  0  0  0  0
   27.1294  -31.6750  -44.0031 C   0  0  0  0  0  0  0  0  0  0  0  0
   26.8938  -30.5385  -44.7995 O   0  0  0  0  0  0  0  0  0  0  0  0
   28.0551  -29.7380  -44.8377 C   0  0  0  0  0  0  0  0  0  0  0  0
   28.4607  -29.2764  -43.4551 C   0  0  0  0  0  0  0  0  0  0  0  0
   27.5395  -29.8522  -42.5117 N   0  0  0  0  0  4  0  0  0  0  0  0
   27.7668  -29.3966  -41.1583 C   0  0  0  0  0  0  0  0  0  0  0  0
   27.6981  -27.8870  -41.0532 C   0  0  0  0  0  0  0  0  0  0  0  0
   27.8055  -27.5253  -39.5932 C   0  0  0  0  0  0  0  0  0  0  0  0
   29.0868  -27.1405  -39.2145 O   0  0  0  0  0  0  0  0  0  0  0  0
   29.4408  -26.1831  -38.2971 C   0  0  0  0  0  0  0  0  0  0  0  0
   30.2740  -26.5818  -37.2561 C   0  0  0  0  0  0  0  0  0  0  0  0
   30.6834  -25.6895  -36.2846 C   0  0  0  0  0  0  0  0  0  0  0  0
   30.7163  -27.8897  -37.1656 O   0  0  0  0  0  0  0  0  0  0  0  0
   31.5470  -28.2733  -36.0941 C   0  0  0  0  0  0  0  0  0  0  0  0
   29.0208  -24.8731  -38.3541 C   0  0  0  0  0  0  0  0  0  0  0  0
   29.4141  -23.9607  -37.3965 C   0  0  0  0  0  0  0  0  0  0  0  0
   30.2558  -24.3718  -36.3479 C   0  0  0  0  0  0  0  0  0  0  0  0
   30.6139  -23.4762  -35.4333 N   0  0  0  0  0  0  0  0  0  0  0  0
   30.1973  -22.1955  -35.4794 C   0  0  0  0  0  0  0  0  0  0  0  0
   29.3928  -21.8304  -36.4931 N   0  0  0  0  0  0  0  0  0  0  0  0
   28.9779  -22.6602  -37.4622 C   0  0  0  0  0  0  0  0  0  0  0  0
   28.1352  -22.2445  -38.5105 N   0  0  0  0  0  0  0  0  0  0  0  0
   27.7875  -20.8961  -38.7650 C   0  0  0  0  0  0  0  0  0  0  0  0
   28.7408  -19.8987  -38.7733 C   0  0  0  0  0  0  0  0  0  0  0  0
   28.4588  -18.5708  -39.0213 C   0  0  0  0  0  0  0  0  0  0  0  0
   29.6847  -17.3222  -39.0315 Cl  0  0  0  0  0  0  0  0  0  0  0  0
   27.1480  -18.1749  -39.2815 C   0  0  0  0  0  0  0  0  0  0  0  0
   26.8541  -16.8743  -39.5283 F   0  0  0  0  0  0  0  0  0  0  0  0
   26.1889  -19.1613  -39.2753 C   0  0  0  0  0  0  0  0  0  0  0  0
   26.4821  -20.4924  -39.0259 C   0  0  0  0  0  0  0  0  0  0  0  0
 20 19  2  0
 20 21  1  0
 18 13  1  0
 18 17  2  0
 18 19  1  0
 17 16  1  0
 17 22  1  0
 22 21  2  0
 22 23  1  0
 15 14  1  0
 30 28  1  0
 30 31  2  0
 31 24  1  0
 25 24  2  0
 25 26  1  0
 13 12  2  0
 16 11  2  0
  8  7  1  0
  8  9  1  0
  9 10  1  0
  2  1  1  0
  2  3  1  0
  4  3  1  0
  4  5  1  0
  7  6  1  0
  1  6  1  0
  5  6  1  0
 28 26  2  0
 28 29  1  0
 26 27  1  0
 24 23  1  0
 12 11  1  0
 12 14  1  0
 11 10  1  0
M  CHG  1   6   1
M  END
$$$$
