
     RDKit          3D

 31 34  0  0  0  0  0  0  0  0999 V2000
   26.0045  -28.5559  -43.1065 C   0  0  0  0  0  0  0  0  0  0  0  0
   25.1412  -28.1935  -44.2932 C   0  0  0  0  0  0  0  0  0  0  0  0
   24.4336  -26.9976  -44.0682 O   0  0  0  0  0  0  0  0  0  0  0  0
   25.3375  -25.9701  -43.7243 C   0  0  0  0  0  0  0  0  0  0  0  0
   26.1156  -26.3074  -42.4714 C   0  0  0  0  0  0  0  0  0  0  0  0
   25.7121  -27.6205  -42.0436 N   0  0  0  0  0  4  0  0  0  0  0  0
   26.3177  -28.0112  -40.7899 C   0  0  0  0  0  0  0  0  0  0  0  0
   27.6698  -27.3583  -40.5900 C   0  0  0  0  0  0  0  0  0  0  0  0
   28.0243  -27.4796  -39.1293 C   0  0  0  0  0  0  0  0  0  0  0  0
   29.2589  -26.9227  -38.8146 O   0  0  0  0  0  0  0  0  0  0  0  0
   29.5355  -25.9745  -37.8618 C   0  0  0  0  0  0  0  0  0  0  0  0
   30.2737  -26.3855  -36.7559 C   0  0  0  0  0  0  0  0  0  0  0  0
   30.6005  -25.5031  -35.7449 C   0  0  0  0  0  0  0  0  0  0  0  0
   30.7014  -27.6961  -36.6385 O   0  0  0  0  0  0  0  0  0  0  0  0
   31.9343  -27.9751  -36.0160 C   0  0  0  0  0  0  0  0  0  0  0  0
   29.1271  -24.6622  -37.9438 C   0  0  0  0  0  0  0  0  0  0  0  0
   29.4392  -23.7595  -36.9479 C   0  0  0  0  0  0  0  0  0  0  0  0
   30.1851  -24.1830  -35.8338 C   0  0  0  0  0  0  0  0  0  0  0  0
   30.4659  -23.2966  -34.8839 N   0  0  0  0  0  0  0  0  0  0  0  0
   30.0597  -22.0136  -34.9550 C   0  0  0  0  0  0  0  0  0  0  0  0
   29.3477  -21.6366  -36.0315 N   0  0  0  0  0  0  0  0  0  0  0  0
   29.0154  -22.4565  -37.0401 C   0  0  0  0  0  0  0  0  0  0  0  0
   28.2685  -22.0283  -38.1540 N   0  0  0  0  0  0  0  0  0  0  0  0
   27.9103  -20.6815  -38.4020 C   0  0  0  0  0  0  0  0  0  0  0  0
   28.8385  -19.6644  -38.3133 C   0  0  0  0  0  0  0  0  0  0  0  0
   28.5458  -18.3368  -38.5503 C   0  0  0  0  0  0  0  0  0  0  0  0
   29.7400  -17.0629  -38.4366 Cl  0  0  0  0  0  0  0  0  0  0  0  0
   27.2498  -17.9620  -38.9007 C   0  0  0  0  0  0  0  0  0  0  0  0
   26.9459  -16.6619  -39.1380 F   0  0  0  0  0  0  0  0  0  0  0  0
   26.3159  -18.9681  -38.9916 C   0  0  0  0  0  0  0  0  0  0  0  0
   26.6197  -20.2987  -38.7524 C   0  0  0  0  0  0  0  0  0  0  0  0
 20 19  2  0
 20 21  1  0
 18 13  1  0
 18 17  2  0
 18 19  1  0
 17 16  1  0
 17 22  1  0
 22 21  2  0
 22 23  1  0
 15 14  1  0
 30 28  1  0
 30 31  2  0
 31 24  1  0
 25 24  2  0
 25 26  1  0
 13 12  2  0
 16 11  2  0
  8  7  1  0
  8  9  1  0
  9 10  1  0
  2  1  1  0
  2  3  1  0
  4  3  1  0
  4  5  1  0
  7  6  1  0
  1  6  1  0
  5  6  1  0
 28 26  2  0
 28 29  1  0
 26 27  1  0
 24 23  1  0
 12 11  1  0
 12 14  1  0
 11 10  1  0
M  CHG  1   6   1
M  END
$$$$
