
     RDKit          3D

 31 34  0  0  0  0  0  0  0  0999 V2000
   27.0518  -30.0287  -41.9814 C   0  0  0  0  0  0  0  0  0  0  0  0
   26.1048  -31.2010  -42.0978 C   0  0  0  0  0  0  0  0  0  0  0  0
   24.8451  -30.7984  -42.5801 O   0  0  0  0  0  0  0  0  0  0  0  0
   25.0038  -30.1094  -43.8012 C   0  0  0  0  0  0  0  0  0  0  0  0
   25.8687  -28.8785  -43.6392 C   0  0  0  0  0  0  0  0  0  0  0  0
   26.3046  -28.8249  -42.2692 N   0  0  0  0  0  4  0  0  0  0  0  0
   27.0590  -27.6285  -41.9685 C   0  0  0  0  0  0  0  0  0  0  0  0
   28.0786  -27.8658  -40.8737 C   0  0  0  0  0  0  0  0  0  0  0  0
   28.2764  -26.5617  -40.1428 C   0  0  0  0  0  0  0  0  0  0  0  0
   28.6326  -26.7269  -38.8090 O   0  0  0  0  0  0  0  0  0  0  0  0
   29.0931  -25.7724  -37.9371 C   0  0  0  0  0  0  0  0  0  0  0  0
   29.9568  -26.1976  -36.9320 C   0  0  0  0  0  0  0  0  0  0  0  0
   30.4715  -25.3102  -36.0073 C   0  0  0  0  0  0  0  0  0  0  0  0
   30.3241  -27.5277  -36.8312 O   0  0  0  0  0  0  0  0  0  0  0  0
   31.0468  -27.9691  -35.7050 C   0  0  0  0  0  0  0  0  0  0  0  0
   28.7499  -24.4408  -38.0057 C   0  0  0  0  0  0  0  0  0  0  0  0
   29.2490  -23.5326  -37.0945 C   0  0  0  0  0  0  0  0  0  0  0  0
   30.1209  -23.9705  -36.0820 C   0  0  0  0  0  0  0  0  0  0  0  0
   30.5816  -23.0780  -35.2114 N   0  0  0  0  0  0  0  0  0  0  0  0
   30.2405  -21.7755  -35.2686 C   0  0  0  0  0  0  0  0  0  0  0  0
   29.4051  -21.3851  -36.2470 N   0  0  0  0  0  0  0  0  0  0  0  0
   28.8886  -22.2097  -37.1707 C   0  0  0  0  0  0  0  0  0  0  0  0
   28.0162  -21.7671  -38.1830 N   0  0  0  0  0  0  0  0  0  0  0  0
   27.7049  -20.4079  -38.4273 C   0  0  0  0  0  0  0  0  0  0  0  0
   28.6903  -19.4432  -38.4720 C   0  0  0  0  0  0  0  0  0  0  0  0
   28.4443  -18.1067  -38.7121 C   0  0  0  0  0  0  0  0  0  0  0  0
   29.7103  -16.9001  -38.7691 Cl  0  0  0  0  0  0  0  0  0  0  0  0
   27.1389  -17.6671  -38.9255 C   0  0  0  0  0  0  0  0  0  0  0  0
   26.8802  -16.3575  -39.1640 F   0  0  0  0  0  0  0  0  0  0  0  0
   26.1481  -18.6206  -38.8827 C   0  0  0  0  0  0  0  0  0  0  0  0
   26.4052  -19.9607  -38.6415 C   0  0  0  0  0  0  0  0  0  0  0  0
 20 19  2  0
 20 21  1  0
 18 13  1  0
 18 17  2  0
 18 19  1  0
 17 16  1  0
 17 22  1  0
 22 21  2  0
 22 23  1  0
 15 14  1  0
 30 28  1  0
 30 31  2  0
 31 24  1  0
 25 24  2  0
 25 26  1  0
 13 12  2  0
 16 11  2  0
  8  7  1  0
  8  9  1  0
  9 10  1  0
  2  1  1  0
  2  3  1  0
  4  3  1  0
  4  5  1  0
  7  6  1  0
  1  6  1  0
  5  6  1  0
 28 26  2  0
 28 29  1  0
 26 27  1  0
 24 23  1  0
 12 11  1  0
 12 14  1  0
 11 10  1  0
M  CHG  1   6   1
M  END
$$$$
