
     RDKit          3D

 31 34  0  0  0  0  0  0  0  0999 V2000
   25.9101  -28.3819  -42.8161 C   0  0  0  0  0  0  0  0  0  0  0  0
   25.7750  -28.6608  -44.2955 C   0  0  0  0  0  0  0  0  0  0  0  0
   26.6099  -29.7205  -44.6974 O   0  0  0  0  0  0  0  0  0  0  0  0
   26.3439  -30.8587  -43.9070 C   0  0  0  0  0  0  0  0  0  0  0  0
   26.5889  -30.5883  -42.4387 C   0  0  0  0  0  0  0  0  0  0  0  0
   26.9793  -29.2100  -42.3048 N   0  0  0  0  0  4  0  0  0  0  0  0
   27.3410  -28.8600  -40.9492 C   0  0  0  0  0  0  0  0  0  0  0  0
   27.6615  -27.3857  -40.8145 C   0  0  0  0  0  0  0  0  0  0  0  0
   27.7495  -27.0697  -39.3427 C   0  0  0  0  0  0  0  0  0  0  0  0
   29.0422  -26.7846  -38.9174 O   0  0  0  0  0  0  0  0  0  0  0  0
   29.4415  -25.8158  -38.0312 C   0  0  0  0  0  0  0  0  0  0  0  0
   30.2971  -26.2096  -37.0065 C   0  0  0  0  0  0  0  0  0  0  0  0
   30.7521  -25.3059  -36.0664 C   0  0  0  0  0  0  0  0  0  0  0  0
   30.7162  -27.5240  -36.9012 O   0  0  0  0  0  0  0  0  0  0  0  0
   31.7134  -27.8661  -35.9663 C   0  0  0  0  0  0  0  0  0  0  0  0
   29.0457  -24.4991  -38.1037 C   0  0  0  0  0  0  0  0  0  0  0  0
   29.4846  -23.5753  -37.1775 C   0  0  0  0  0  0  0  0  0  0  0  0
   30.3486  -23.9815  -36.1452 C   0  0  0  0  0  0  0  0  0  0  0  0
   30.7508  -23.0746  -35.2606 N   0  0  0  0  0  0  0  0  0  0  0  0
   30.3581  -21.7869  -35.3217 C   0  0  0  0  0  0  0  0  0  0  0  0
   29.5315  -21.4268  -36.3192 N   0  0  0  0  0  0  0  0  0  0  0  0
   29.0722  -22.2678  -37.2582 C   0  0  0  0  0  0  0  0  0  0  0  0
   28.2074  -21.8570  -38.2902 N   0  0  0  0  0  0  0  0  0  0  0  0
   27.8941  -20.5063  -38.5755 C   0  0  0  0  0  0  0  0  0  0  0  0
   28.8732  -19.5348  -38.6109 C   0  0  0  0  0  0  0  0  0  0  0  0
   28.6252  -18.2062  -38.8894 C   0  0  0  0  0  0  0  0  0  0  0  0
   29.8834  -16.9909  -38.9336 Cl  0  0  0  0  0  0  0  0  0  0  0  0
   27.3241  -17.7822  -39.1546 C   0  0  0  0  0  0  0  0  0  0  0  0
   27.0635  -16.4806  -39.4312 F   0  0  0  0  0  0  0  0  0  0  0  0
   26.3395  -18.7426  -39.1215 C   0  0  0  0  0  0  0  0  0  0  0  0
   26.5987  -20.0747  -38.8415 C   0  0  0  0  0  0  0  0  0  0  0  0
 20 19  2  0
 20 21  1  0
 18 13  1  0
 18 17  2  0
 18 19  1  0
 17 16  1  0
 17 22  1  0
 22 21  2  0
 22 23  1  0
 15 14  1  0
 30 28  1  0
 30 31  2  0
 31 24  1  0
 25 24  2  0
 25 26  1  0
 13 12  2  0
 16 11  2  0
  8  7  1  0
  8  9  1  0
  9 10  1  0
  2  1  1  0
  2  3  1  0
  4  3  1  0
  4  5  1  0
  7  6  1  0
  1  6  1  0
  5  6  1  0
 28 26  2  0
 28 29  1  0
 26 27  1  0
 24 23  1  0
 12 11  1  0
 12 14  1  0
 11 10  1  0
M  CHG  1   6   1
M  END
$$$$
