
     RDKit          3D

 31 34  0  0  0  0  0  0  0  0999 V2000
   27.1823  -29.0612  -43.2589 C   0  0  0  0  0  0  0  0  0  0  0  0
   26.2486  -29.2524  -44.4321 C   0  0  0  0  0  0  0  0  0  0  0  0
   24.9112  -29.0025  -44.0709 O   0  0  0  0  0  0  0  0  0  0  0  0
   24.8069  -27.7153  -43.5023 C   0  0  0  0  0  0  0  0  0  0  0  0
   25.6687  -27.5798  -42.2661 C   0  0  0  0  0  0  0  0  0  0  0  0
   26.3746  -28.8201  -42.0843 N   0  0  0  0  0  4  0  0  0  0  0  0
   27.1570  -28.8456  -40.8685 C   0  0  0  0  0  0  0  0  0  0  0  0
   28.0023  -27.5979  -40.7165 C   0  0  0  0  0  0  0  0  0  0  0  0
   27.7104  -27.0107  -39.3585 C   0  0  0  0  0  0  0  0  0  0  0  0
   28.7979  -27.0576  -38.4934 O   0  0  0  0  0  0  0  0  0  0  0  0
   29.2301  -26.0806  -37.6321 C   0  0  0  0  0  0  0  0  0  0  0  0
   30.0580  -26.4795  -36.5869 C   0  0  0  0  0  0  0  0  0  0  0  0
   30.5424  -25.5682  -35.6691 C   0  0  0  0  0  0  0  0  0  0  0  0
   30.4190  -27.8069  -36.4380 O   0  0  0  0  0  0  0  0  0  0  0  0
   31.6872  -28.1312  -35.9164 C   0  0  0  0  0  0  0  0  0  0  0  0
   28.8920  -24.7509  -37.7480 C   0  0  0  0  0  0  0  0  0  0  0  0
   29.3614  -23.8192  -36.8448 C   0  0  0  0  0  0  0  0  0  0  0  0
   30.1971  -24.2307  -35.7916 C   0  0  0  0  0  0  0  0  0  0  0  0
   30.6295  -23.3156  -34.9299 N   0  0  0  0  0  0  0  0  0  0  0  0
   30.2931  -22.0148  -35.0335 C   0  0  0  0  0  0  0  0  0  0  0  0
   29.4924  -21.6498  -36.0502 N   0  0  0  0  0  0  0  0  0  0  0  0
   29.0064  -22.4983  -36.9687 C   0  0  0  0  0  0  0  0  0  0  0  0
   28.1700  -22.0821  -38.0219 N   0  0  0  0  0  0  0  0  0  0  0  0
   27.8245  -20.7336  -38.2784 C   0  0  0  0  0  0  0  0  0  0  0  0
   28.7724  -19.7314  -38.2451 C   0  0  0  0  0  0  0  0  0  0  0  0
   28.4925  -18.4031  -38.4929 C   0  0  0  0  0  0  0  0  0  0  0  0
   29.7114  -17.1484  -38.4500 Cl  0  0  0  0  0  0  0  0  0  0  0  0
   27.1897  -18.0116  -38.7967 C   0  0  0  0  0  0  0  0  0  0  0  0
   26.8980  -16.7106  -39.0439 F   0  0  0  0  0  0  0  0  0  0  0  0
   26.2361  -19.0027  -38.8322 C   0  0  0  0  0  0  0  0  0  0  0  0
   26.5272  -20.3343  -38.5825 C   0  0  0  0  0  0  0  0  0  0  0  0
 20 19  2  0
 20 21  1  0
 18 13  1  0
 18 17  2  0
 18 19  1  0
 17 16  1  0
 17 22  1  0
 22 21  2  0
 22 23  1  0
 15 14  1  0
 30 28  1  0
 30 31  2  0
 31 24  1  0
 25 24  2  0
 25 26  1  0
 13 12  2  0
 16 11  2  0
  8  7  1  0
  8  9  1  0
  9 10  1  0
  2  1  1  0
  2  3  1  0
  4  3  1  0
  4  5  1  0
  7  6  1  0
  1  6  1  0
  5  6  1  0
 28 26  2  0
 28 29  1  0
 26 27  1  0
 24 23  1  0
 12 11  1  0
 12 14  1  0
 11 10  1  0
M  CHG  1   6   1
M  END
$$$$
