
     RDKit          3D

 31 34  0  0  0  0  0  0  0  0999 V2000
   25.3156  -27.6593  -42.5922 C   0  0  0  0  0  0  0  0  0  0  0  0
   24.6291  -28.0945  -43.8665 C   0  0  0  0  0  0  0  0  0  0  0  0
   25.5629  -28.4385  -44.8620 O   0  0  0  0  0  0  0  0  0  0  0  0
   26.4472  -29.4186  -44.3633 C   0  0  0  0  0  0  0  0  0  0  0  0
   27.2032  -28.9228  -43.1502 C   0  0  0  0  0  0  0  0  0  0  0  0
   26.7360  -27.5948  -42.8536 N   0  0  0  0  0  4  0  0  0  0  0  0
   27.4638  -26.9749  -41.7687 C   0  0  0  0  0  0  0  0  0  0  0  0
   27.7070  -27.9421  -40.6286 C   0  0  0  0  0  0  0  0  0  0  0  0
   27.8517  -27.1319  -39.3650 C   0  0  0  0  0  0  0  0  0  0  0  0
   29.1738  -26.9580  -38.9712 O   0  0  0  0  0  0  0  0  0  0  0  0
   29.6732  -26.0361  -38.0858 C   0  0  0  0  0  0  0  0  0  0  0  0
   30.6406  -26.4797  -37.1889 C   0  0  0  0  0  0  0  0  0  0  0  0
   31.2015  -25.6254  -36.2599 C   0  0  0  0  0  0  0  0  0  0  0  0
   31.0680  -27.7956  -37.2035 O   0  0  0  0  0  0  0  0  0  0  0  0
   32.0191  -28.2313  -36.2596 C   0  0  0  0  0  0  0  0  0  0  0  0
   29.2728  -24.7195  -38.0412 C   0  0  0  0  0  0  0  0  0  0  0  0
   29.8161  -23.8444  -37.1230 C   0  0  0  0  0  0  0  0  0  0  0  0
   30.7928  -24.3008  -36.2203 C   0  0  0  0  0  0  0  0  0  0  0  0
   31.2948  -23.4406  -35.3400 N   0  0  0  0  0  0  0  0  0  0  0  0
   30.8987  -22.1537  -35.2861 C   0  0  0  0  0  0  0  0  0  0  0  0
   29.9631  -21.7449  -36.1610 N   0  0  0  0  0  0  0  0  0  0  0  0
   29.3982  -22.5368  -37.0850 C   0  0  0  0  0  0  0  0  0  0  0  0
   28.4207  -22.0757  -37.9872 N   0  0  0  0  0  0  0  0  0  0  0  0
   28.0650  -20.7151  -38.1483 C   0  0  0  0  0  0  0  0  0  0  0  0
   29.0136  -19.7145  -38.0957 C   0  0  0  0  0  0  0  0  0  0  0  0
   28.7238  -18.3745  -38.2521 C   0  0  0  0  0  0  0  0  0  0  0  0
   29.9438  -17.1217  -38.1864 Cl  0  0  0  0  0  0  0  0  0  0  0  0
   27.4094  -17.9687  -38.4768 C   0  0  0  0  0  0  0  0  0  0  0  0
   27.1078  -16.6560  -38.6338 F   0  0  0  0  0  0  0  0  0  0  0  0
   26.4549  -18.9581  -38.5306 C   0  0  0  0  0  0  0  0  0  0  0  0
   26.7560  -20.3015  -38.3730 C   0  0  0  0  0  0  0  0  0  0  0  0
 20 19  2  0
 20 21  1  0
 18 13  1  0
 18 17  2  0
 18 19  1  0
 17 16  1  0
 17 22  1  0
 22 21  2  0
 22 23  1  0
 15 14  1  0
 30 28  1  0
 30 31  2  0
 31 24  1  0
 25 24  2  0
 25 26  1  0
 13 12  2  0
 16 11  2  0
  8  7  1  0
  8  9  1  0
  9 10  1  0
  2  1  1  0
  2  3  1  0
  4  3  1  0
  4  5  1  0
  7  6  1  0
  1  6  1  0
  5  6  1  0
 28 26  2  0
 28 29  1  0
 26 27  1  0
 24 23  1  0
 12 11  1  0
 12 14  1  0
 11 10  1  0
M  CHG  1   6   1
M  END
$$$$
