
     RDKit          3D

 31 34  0  0  0  0  0  0  0  0999 V2000
   25.2578  -30.3002  -41.7453 C   0  0  0  0  0  0  0  0  0  0  0  0
   24.1819  -30.4173  -42.8005 C   0  0  0  0  0  0  0  0  0  0  0  0
   24.0805  -29.2394  -43.5644 O   0  0  0  0  0  0  0  0  0  0  0  0
   25.3411  -28.9201  -44.1120 C   0  0  0  0  0  0  0  0  0  0  0  0
   26.3792  -28.7017  -43.0331 C   0  0  0  0  0  0  0  0  0  0  0  0
   25.7490  -28.9405  -41.7620 N   0  0  0  0  0  4  0  0  0  0  0  0
   26.6217  -28.6609  -40.6435 C   0  0  0  0  0  0  0  0  0  0  0  0
   27.8609  -27.9025  -41.0719 C   0  0  0  0  0  0  0  0  0  0  0  0
   27.9904  -26.6958  -40.1768 C   0  0  0  0  0  0  0  0  0  0  0  0
   28.7830  -26.9235  -39.0574 O   0  0  0  0  0  0  0  0  0  0  0  0
   29.1666  -26.0180  -38.1002 C   0  0  0  0  0  0  0  0  0  0  0  0
   29.9663  -26.4924  -37.0647 C   0  0  0  0  0  0  0  0  0  0  0  0
   30.4016  -25.6564  -36.0552 C   0  0  0  0  0  0  0  0  0  0  0  0
   30.3480  -27.8216  -37.0181 O   0  0  0  0  0  0  0  0  0  0  0  0
   31.1755  -28.2741  -35.9712 C   0  0  0  0  0  0  0  0  0  0  0  0
   28.8068  -24.6890  -38.1130 C   0  0  0  0  0  0  0  0  0  0  0  0
   29.2271  -23.8316  -37.1168 C   0  0  0  0  0  0  0  0  0  0  0  0
   30.0346  -24.3192  -36.0741 C   0  0  0  0  0  0  0  0  0  0  0  0
   30.4197  -23.4753  -35.1220 N   0  0  0  0  0  0  0  0  0  0  0  0
   30.0617  -22.1762  -35.1249 C   0  0  0  0  0  0  0  0  0  0  0  0
   29.2889  -21.7376  -36.1340 N   0  0  0  0  0  0  0  0  0  0  0  0
   28.8508  -22.5110  -37.1389 C   0  0  0  0  0  0  0  0  0  0  0  0
   28.0426  -22.0188  -38.1811 N   0  0  0  0  0  0  0  0  0  0  0  0
   27.7911  -20.6451  -38.4123 C   0  0  0  0  0  0  0  0  0  0  0  0
   28.7943  -19.7041  -38.3042 C   0  0  0  0  0  0  0  0  0  0  0  0
   28.6066  -18.3547  -38.5243 C   0  0  0  0  0  0  0  0  0  0  0  0
   29.8948  -17.1786  -38.3862 Cl  0  0  0  0  0  0  0  0  0  0  0  0
   27.3458  -17.8762  -38.8766 C   0  0  0  0  0  0  0  0  0  0  0  0
   27.1447  -16.5535  -39.0975 F   0  0  0  0  0  0  0  0  0  0  0  0
   26.3376  -18.8058  -38.9868 C   0  0  0  0  0  0  0  0  0  0  0  0
   26.5362  -20.1591  -38.7645 C   0  0  0  0  0  0  0  0  0  0  0  0
 20 19  2  0
 20 21  1  0
 18 13  1  0
 18 17  2  0
 18 19  1  0
 17 16  1  0
 17 22  1  0
 22 21  2  0
 22 23  1  0
 15 14  1  0
 30 28  1  0
 30 31  2  0
 31 24  1  0
 25 24  2  0
 25 26  1  0
 13 12  2  0
 16 11  2  0
  8  7  1  0
  8  9  1  0
  9 10  1  0
  2  1  1  0
  2  3  1  0
  4  3  1  0
  4  5  1  0
  7  6  1  0
  1  6  1  0
  5  6  1  0
 28 26  2  0
 28 29  1  0
 26 27  1  0
 24 23  1  0
 12 11  1  0
 12 14  1  0
 11 10  1  0
M  CHG  1   6   1
M  END
$$$$
