
     RDKit          3D

 31 34  0  0  0  0  0  0  0  0999 V2000
   26.5053  -29.2779  -42.9494 C   0  0  0  0  0  0  0  0  0  0  0  0
   25.8180  -29.0905  -44.2825 C   0  0  0  0  0  0  0  0  0  0  0  0
   25.0940  -27.8840  -44.3227 O   0  0  0  0  0  0  0  0  0  0  0  0
   25.9483  -26.8083  -43.9998 C   0  0  0  0  0  0  0  0  0  0  0  0
   26.5423  -26.9629  -42.6169 C   0  0  0  0  0  0  0  0  0  0  0  0
   26.0743  -28.2106  -42.0745 N   0  0  0  0  0  4  0  0  0  0  0  0
   26.4969  -28.4201  -40.7076 C   0  0  0  0  0  0  0  0  0  0  0  0
   27.9195  -27.9521  -40.4799 C   0  0  0  0  0  0  0  0  0  0  0  0
   27.9586  -27.2378  -39.1524 C   0  0  0  0  0  0  0  0  0  0  0  0
   29.2410  -26.8642  -38.7662 O   0  0  0  0  0  0  0  0  0  0  0  0
   29.5983  -25.8975  -37.8601 C   0  0  0  0  0  0  0  0  0  0  0  0
   30.4156  -26.2908  -36.8045 C   0  0  0  0  0  0  0  0  0  0  0  0
   30.8269  -25.3889  -35.8426 C   0  0  0  0  0  0  0  0  0  0  0  0
   30.8395  -27.6028  -36.6893 O   0  0  0  0  0  0  0  0  0  0  0  0
   32.1620  -27.8765  -36.2873 C   0  0  0  0  0  0  0  0  0  0  0  0
   29.1963  -24.5831  -37.9415 C   0  0  0  0  0  0  0  0  0  0  0  0
   29.5919  -23.6612  -36.9941 C   0  0  0  0  0  0  0  0  0  0  0  0
   30.4174  -24.0669  -35.9306 C   0  0  0  0  0  0  0  0  0  0  0  0
   30.7781  -23.1620  -35.0263 N   0  0  0  0  0  0  0  0  0  0  0  0
   30.3789  -21.8768  -35.0964 C   0  0  0  0  0  0  0  0  0  0  0  0
   29.5897  -21.5170  -36.1238 N   0  0  0  0  0  0  0  0  0  0  0  0
   29.1737  -22.3562  -37.0844 C   0  0  0  0  0  0  0  0  0  0  0  0
   28.3472  -21.9459  -38.1476 N   0  0  0  0  0  0  0  0  0  0  0  0
   27.9513  -20.6062  -38.3765 C   0  0  0  0  0  0  0  0  0  0  0  0
   28.8426  -19.5617  -38.2415 C   0  0  0  0  0  0  0  0  0  0  0  0
   28.5125  -18.2394  -38.4581 C   0  0  0  0  0  0  0  0  0  0  0  0
   29.6605  -16.9301  -38.2856 Cl  0  0  0  0  0  0  0  0  0  0  0  0
   27.2144  -17.8993  -38.8350 C   0  0  0  0  0  0  0  0  0  0  0  0
   26.8739  -16.6049  -39.0528 F   0  0  0  0  0  0  0  0  0  0  0  0
   26.3169  -18.9330  -38.9721 C   0  0  0  0  0  0  0  0  0  0  0  0
   26.6582  -20.2580  -38.7531 C   0  0  0  0  0  0  0  0  0  0  0  0
 20 19  2  0
 20 21  1  0
 18 13  1  0
 18 17  2  0
 18 19  1  0
 17 16  1  0
 17 22  1  0
 22 21  2  0
 22 23  1  0
 15 14  1  0
 30 28  1  0
 30 31  2  0
 31 24  1  0
 25 24  2  0
 25 26  1  0
 13 12  2  0
 16 11  2  0
  8  7  1  0
  8  9  1  0
  9 10  1  0
  2  1  1  0
  2  3  1  0
  4  3  1  0
  4  5  1  0
  7  6  1  0
  1  6  1  0
  5  6  1  0
 28 26  2  0
 28 29  1  0
 26 27  1  0
 24 23  1  0
 12 11  1  0
 12 14  1  0
 11 10  1  0
M  CHG  1   6   1
M  END
$$$$
