
     RDKit          3D

 31 34  0  0  0  0  0  0  0  0999 V2000
   25.3414  -26.7016  -42.6356 C   0  0  0  0  0  0  0  0  0  0  0  0
   25.0345  -26.6555  -44.1149 C   0  0  0  0  0  0  0  0  0  0  0  0
   25.0774  -27.9399  -44.6893 O   0  0  0  0  0  0  0  0  0  0  0  0
   24.2111  -28.8027  -43.9850 C   0  0  0  0  0  0  0  0  0  0  0  0
   24.6016  -28.9180  -42.5277 C   0  0  0  0  0  0  0  0  0  0  0  0
   25.7306  -28.0544  -42.3056 N   0  0  0  0  0  4  0  0  0  0  0  0
   26.2596  -28.1589  -40.9639 C   0  0  0  0  0  0  0  0  0  0  0  0
   27.5265  -27.3464  -40.7931 C   0  0  0  0  0  0  0  0  0  0  0  0
   28.0485  -27.6009  -39.4014 C   0  0  0  0  0  0  0  0  0  0  0  0
   29.2413  -26.9394  -39.1316 O   0  0  0  0  0  0  0  0  0  0  0  0
   29.4881  -26.0199  -38.1431 C   0  0  0  0  0  0  0  0  0  0  0  0
   30.2122  -26.4578  -37.0382 C   0  0  0  0  0  0  0  0  0  0  0  0
   30.5090  -25.6054  -35.9928 C   0  0  0  0  0  0  0  0  0  0  0  0
   30.6556  -27.7659  -36.9565 O   0  0  0  0  0  0  0  0  0  0  0  0
   31.4067  -28.1800  -35.8385 C   0  0  0  0  0  0  0  0  0  0  0  0
   29.0633  -24.7110  -38.1890 C   0  0  0  0  0  0  0  0  0  0  0  0
   29.3454  -23.8380  -37.1584 C   0  0  0  0  0  0  0  0  0  0  0  0
   30.0773  -24.2886  -36.0455 C   0  0  0  0  0  0  0  0  0  0  0  0
   30.3291  -23.4307  -35.0620 N   0  0  0  0  0  0  0  0  0  0  0  0
   29.9067  -22.1515  -35.0980 C   0  0  0  0  0  0  0  0  0  0  0  0
   29.2088  -21.7482  -36.1741 N   0  0  0  0  0  0  0  0  0  0  0  0
   28.9055  -22.5383  -37.2151 C   0  0  0  0  0  0  0  0  0  0  0  0
   28.1727  -22.0831  -38.3276 N   0  0  0  0  0  0  0  0  0  0  0  0
   27.9072  -20.7200  -38.6021 C   0  0  0  0  0  0  0  0  0  0  0  0
   28.9024  -19.7670  -38.5313 C   0  0  0  0  0  0  0  0  0  0  0  0
   28.7010  -18.4273  -38.7942 C   0  0  0  0  0  0  0  0  0  0  0  0
   29.9791  -17.2357  -38.7030 Cl  0  0  0  0  0  0  0  0  0  0  0  0
   27.4337  -17.9720  -39.1541 C   0  0  0  0  0  0  0  0  0  0  0  0
   27.2192  -16.6591  -39.4169 F   0  0  0  0  0  0  0  0  0  0  0  0
   26.4334  -18.9137  -39.2273 C   0  0  0  0  0  0  0  0  0  0  0  0
   26.6458  -20.2571  -38.9621 C   0  0  0  0  0  0  0  0  0  0  0  0
 20 19  2  0
 20 21  1  0
 18 13  1  0
 18 17  2  0
 18 19  1  0
 17 16  1  0
 17 22  1  0
 22 21  2  0
 22 23  1  0
 15 14  1  0
 30 28  1  0
 30 31  2  0
 31 24  1  0
 25 24  2  0
 25 26  1  0
 13 12  2  0
 16 11  2  0
  8  7  1  0
  8  9  1  0
  9 10  1  0
  2  1  1  0
  2  3  1  0
  4  3  1  0
  4  5  1  0
  7  6  1  0
  1  6  1  0
  5  6  1  0
 28 26  2  0
 28 29  1  0
 26 27  1  0
 24 23  1  0
 12 11  1  0
 12 14  1  0
 11 10  1  0
M  CHG  1   6   1
M  END
$$$$
