
     RDKit          3D

 31 34  0  0  0  0  0  0  0  0999 V2000
   26.2264  -29.7938  -42.3234 C   0  0  0  0  0  0  0  0  0  0  0  0
   25.7745  -30.6705  -43.4688 C   0  0  0  0  0  0  0  0  0  0  0  0
   25.5986  -29.9241  -44.6493 O   0  0  0  0  0  0  0  0  0  0  0  0
   26.7844  -29.2188  -44.9447 C   0  0  0  0  0  0  0  0  0  0  0  0
   27.1605  -28.2675  -43.8298 C   0  0  0  0  0  0  0  0  0  0  0  0
   26.1932  -28.4211  -42.7760 N   0  0  0  0  0  4  0  0  0  0  0  0
   26.3919  -27.4837  -41.6931 C   0  0  0  0  0  0  0  0  0  0  0  0
   27.8433  -27.4178  -41.2645 C   0  0  0  0  0  0  0  0  0  0  0  0
   27.8727  -27.0234  -39.8093 C   0  0  0  0  0  0  0  0  0  0  0  0
   29.1590  -26.9365  -39.2885 O   0  0  0  0  0  0  0  0  0  0  0  0
   29.6380  -26.0284  -38.3779 C   0  0  0  0  0  0  0  0  0  0  0  0
   30.5641  -26.4927  -37.4486 C   0  0  0  0  0  0  0  0  0  0  0  0
   31.1019  -25.6535  -36.4926 C   0  0  0  0  0  0  0  0  0  0  0  0
   30.9725  -27.8147  -37.4572 O   0  0  0  0  0  0  0  0  0  0  0  0
   31.9600  -28.2463  -36.5494 C   0  0  0  0  0  0  0  0  0  0  0  0
   29.2554  -24.7064  -38.3384 C   0  0  0  0  0  0  0  0  0  0  0  0
   29.7763  -23.8460  -37.3937 C   0  0  0  0  0  0  0  0  0  0  0  0
   30.7114  -24.3233  -36.4583 C   0  0  0  0  0  0  0  0  0  0  0  0
   31.1923  -23.4769  -35.5532 N   0  0  0  0  0  0  0  0  0  0  0  0
   30.8132  -22.1846  -35.5044 C   0  0  0  0  0  0  0  0  0  0  0  0
   29.9176  -21.7558  -36.4109 N   0  0  0  0  0  0  0  0  0  0  0  0
   29.3764  -22.5326  -37.3615 C   0  0  0  0  0  0  0  0  0  0  0  0
   28.4406  -22.0506  -38.2963 N   0  0  0  0  0  0  0  0  0  0  0  0
   28.1198  -20.6827  -38.4685 C   0  0  0  0  0  0  0  0  0  0  0  0
   29.0940  -19.7065  -38.4258 C   0  0  0  0  0  0  0  0  0  0  0  0
   28.8385  -18.3608  -38.5931 C   0  0  0  0  0  0  0  0  0  0  0  0
   30.0905  -17.1394  -38.5399 Cl  0  0  0  0  0  0  0  0  0  0  0  0
   27.5346  -17.9231  -38.8192 C   0  0  0  0  0  0  0  0  0  0  0  0
   27.2667  -16.6045  -38.9869 F   0  0  0  0  0  0  0  0  0  0  0  0
   26.5549  -18.8880  -38.8632 C   0  0  0  0  0  0  0  0  0  0  0  0
   26.8215  -20.2373  -38.6947 C   0  0  0  0  0  0  0  0  0  0  0  0
 20 19  2  0
 20 21  1  0
 18 13  1  0
 18 17  2  0
 18 19  1  0
 17 16  1  0
 17 22  1  0
 22 21  2  0
 22 23  1  0
 15 14  1  0
 30 28  1  0
 30 31  2  0
 31 24  1  0
 25 24  2  0
 25 26  1  0
 13 12  2  0
 16 11  2  0
  8  7  1  0
  8  9  1  0
  9 10  1  0
  2  1  1  0
  2  3  1  0
  4  3  1  0
  4  5  1  0
  7  6  1  0
  1  6  1  0
  5  6  1  0
 28 26  2  0
 28 29  1  0
 26 27  1  0
 24 23  1  0
 12 11  1  0
 12 14  1  0
 11 10  1  0
M  CHG  1   6   1
M  END
$$$$
