
     RDKit          3D

 31 34  0  0  0  0  0  0  0  0999 V2000
  -19.3126   10.3541  162.7278 C   0  0  0  0  0  0  0  0  0  0  0  0
  -19.0616   11.7972  163.1008 C   0  0  0  0  0  0  0  0  0  0  0  0
  -18.2098   12.4272  162.1740 O   0  0  0  0  0  0  0  0  0  0  0  0
  -18.7407   12.2902  160.8738 C   0  0  0  0  0  0  0  0  0  0  0  0
  -18.8836   10.8364  160.4796 C   0  0  0  0  0  0  0  0  0  0  0  0
  -18.4674   10.0345  161.5993 N   0  0  0  0  0  4  0  0  0  0  0  0
  -18.4634    8.6191  161.3030 C   0  0  0  0  0  0  0  0  0  0  0  0
  -17.1618    8.1812  160.6637 C   0  0  0  0  0  0  0  0  0  0  0  0
  -16.7163    6.9168  161.3541 C   0  0  0  0  0  0  0  0  0  0  0  0
  -17.2219    5.7620  160.7674 O   0  0  0  0  0  0  0  0  0  0  0  0
  -16.5252    4.6539  160.3550 C   0  0  0  0  0  0  0  0  0  0  0  0
  -17.2249    3.4523  160.2964 C   0  0  0  0  0  0  0  0  0  0  0  0
  -16.6087    2.2836  159.8938 C   0  0  0  0  0  0  0  0  0  0  0  0
  -18.5634    3.3958  160.6424 O   0  0  0  0  0  0  0  0  0  0  0  0
  -19.2482    2.1657  160.5844 C   0  0  0  0  0  0  0  0  0  0  0  0
  -15.1942    4.6712  160.0031 C   0  0  0  0  0  0  0  0  0  0  0  0
  -14.5534    3.5183  159.5978 C   0  0  0  0  0  0  0  0  0  0  0  0
  -15.2676    2.3084  159.5416 C   0  0  0  0  0  0  0  0  0  0  0  0
  -14.6260    1.2101  159.1560 N   0  0  0  0  0  0  0  0  0  0  0  0
  -13.3209    1.2202  158.8204 C   0  0  0  0  0  0  0  0  0  0  0  0
  -12.6629    2.3911  158.8837 N   0  0  0  0  0  0  0  0  0  0  0  0
  -13.2227    3.5508  159.2600 C   0  0  0  0  0  0  0  0  0  0  0  0
  -12.5041    4.7601  159.3147 N   0  0  0  0  0  0  0  0  0  0  0  0
  -11.1881    4.9269  158.8206 C   0  0  0  0  0  0  0  0  0  0  0  0
  -10.5111    3.8868  158.2176 C   0  0  0  0  0  0  0  0  0  0  0  0
   -9.2311    3.9953  157.7134 C   0  0  0  0  0  0  0  0  0  0  0  0
   -8.3924    2.6639  156.9480 Cl  0  0  0  0  0  0  0  0  0  0  0  0
   -8.5499    5.2083  157.8001 C   0  0  0  0  0  0  0  0  0  0  0  0
   -7.2922    5.3321  157.3086 F   0  0  0  0  0  0  0  0  0  0  0  0
   -9.2153    6.2524  158.4000 C   0  0  0  0  0  0  0  0  0  0  0  0
  -10.5011    6.1337  158.9028 C   0  0  0  0  0  0  0  0  0  0  0  0
 20 19  2  0
 20 21  1  0
 18 13  1  0
 18 17  2  0
 18 19  1  0
 17 16  1  0
 17 22  1  0
 22 21  2  0
 22 23  1  0
 15 14  1  0
 30 28  1  0
 30 31  2  0
 31 24  1  0
 25 24  2  0
 25 26  1  0
 13 12  2  0
 16 11  2  0
  8  7  1  0
  8  9  1  0
  9 10  1  0
  2  1  1  0
  2  3  1  0
  4  3  1  0
  4  5  1  0
  7  6  1  0
  1  6  1  0
  5  6  1  0
 28 26  2  0
 28 29  1  0
 26 27  1  0
 24 23  1  0
 12 11  1  0
 12 14  1  0
 11 10  1  0
M  CHG  1   6   1
M  END
$$$$
