
     RDKit          3D

 31 34  0  0  0  0  0  0  0  0999 V2000
  -17.1564   12.0141  160.6361 C   0  0  0  0  0  0  0  0  0  0  0  0
  -17.5320   13.0870  161.6323 C   0  0  0  0  0  0  0  0  0  0  0  0
  -17.6962   12.5539  162.9247 O   0  0  0  0  0  0  0  0  0  0  0  0
  -16.5300   11.8535  163.2997 C   0  0  0  0  0  0  0  0  0  0  0  0
  -16.2321   10.7156  162.3481 C   0  0  0  0  0  0  0  0  0  0  0  0
  -17.2290   10.7375  161.3110 N   0  0  0  0  0  4  0  0  0  0  0  0
  -17.1065    9.6266  160.3935 C   0  0  0  0  0  0  0  0  0  0  0  0
  -17.1585    8.2942  161.1123 C   0  0  0  0  0  0  0  0  0  0  0  0
  -15.9405    7.5056  160.7017 C   0  0  0  0  0  0  0  0  0  0  0  0
  -16.2155    6.5177  159.7626 O   0  0  0  0  0  0  0  0  0  0  0  0
  -15.6758    5.2584  159.6842 C   0  0  0  0  0  0  0  0  0  0  0  0
  -16.5172    4.1899  159.9796 C   0  0  0  0  0  0  0  0  0  0  0  0
  -16.0642    2.8862  159.9285 C   0  0  0  0  0  0  0  0  0  0  0  0
  -17.8368    4.4063  160.3350 O   0  0  0  0  0  0  0  0  0  0  0  0
  -18.6442    3.3170  160.7183 C   0  0  0  0  0  0  0  0  0  0  0  0
  -14.3686    5.0041  159.3345 C   0  0  0  0  0  0  0  0  0  0  0  0
  -13.8894    3.7114  159.2760 C   0  0  0  0  0  0  0  0  0  0  0  0
  -14.7461    2.6376  159.5763 C   0  0  0  0  0  0  0  0  0  0  0  0
  -14.2586    1.4022  159.5209 N   0  0  0  0  0  0  0  0  0  0  0  0
  -12.9773    1.1491  159.1889 C   0  0  0  0  0  0  0  0  0  0  0  0
  -12.1808    2.1951  158.9072 N   0  0  0  0  0  0  0  0  0  0  0  0
  -12.5801    3.4756  158.9355 C   0  0  0  0  0  0  0  0  0  0  0  0
  -11.7191    4.5478  158.6340 N   0  0  0  0  0  0  0  0  0  0  0  0
  -10.4179    4.3970  158.0972 C   0  0  0  0  0  0  0  0  0  0  0  0
  -10.1154    3.3695  157.2276 C   0  0  0  0  0  0  0  0  0  0  0  0
   -8.8673    3.1792  156.6705 C   0  0  0  0  0  0  0  0  0  0  0  0
   -8.5063    1.8713  155.5655 Cl  0  0  0  0  0  0  0  0  0  0  0  0
   -7.8266    4.0533  156.9803 C   0  0  0  0  0  0  0  0  0  0  0  0
   -6.5946    3.8811  156.4406 F   0  0  0  0  0  0  0  0  0  0  0  0
   -8.1170    5.0815  157.8471 C   0  0  0  0  0  0  0  0  0  0  0  0
   -9.3739    5.2647  158.4009 C   0  0  0  0  0  0  0  0  0  0  0  0
 20 19  2  0
 20 21  1  0
 18 13  1  0
 18 17  2  0
 18 19  1  0
 17 16  1  0
 17 22  1  0
 22 21  2  0
 22 23  1  0
 15 14  1  0
 30 28  1  0
 30 31  2  0
 31 24  1  0
 25 24  2  0
 25 26  1  0
 13 12  2  0
 16 11  2  0
  8  7  1  0
  8  9  1  0
  9 10  1  0
  2  1  1  0
  2  3  1  0
  4  3  1  0
  4  5  1  0
  7  6  1  0
  1  6  1  0
  5  6  1  0
 28 26  2  0
 28 29  1  0
 26 27  1  0
 24 23  1  0
 12 11  1  0
 12 14  1  0
 11 10  1  0
M  CHG  1   6   1
M  END
$$$$
