
     RDKit          3D

 31 34  0  0  0  0  0  0  0  0999 V2000
   13.7614   29.4722  202.9700 C   0  0  0  0  0  0  0  0  0  0  0  0
   15.2537   29.5544  202.7441 C   0  0  0  0  0  0  0  0  0  0  0  0
   15.6478   30.8556  202.3796 O   0  0  0  0  0  0  0  0  0  0  0  0
   15.1972   31.7760  203.3497 C   0  0  0  0  0  0  0  0  0  0  0  0
   13.6902   31.7532  203.4832 C   0  0  0  0  0  0  0  0  0  0  0  0
   13.1852   30.7431  202.5918 N   0  0  0  0  0  4  0  0  0  0  0  0
   11.7403   30.6993  202.5569 C   0  0  0  0  0  0  0  0  0  0  0  0
   11.2302   29.3970  201.9753 C   0  0  0  0  0  0  0  0  0  0  0  0
    9.8167   29.2013  202.4628 C   0  0  0  0  0  0  0  0  0  0  0  0
    8.8951   30.0223  201.8225 O   0  0  0  0  0  0  0  0  0  0  0  0
    7.6089   29.7160  201.4550 C   0  0  0  0  0  0  0  0  0  0  0  0
    6.6292   30.6656  201.7298 C   0  0  0  0  0  0  0  0  0  0  0  0
    5.3066   30.4469  201.3977 C   0  0  0  0  0  0  0  0  0  0  0  0
    6.9557   31.8601  202.3472 O   0  0  0  0  0  0  0  0  0  0  0  0
    5.9612   32.8386  202.5446 C   0  0  0  0  0  0  0  0  0  0  0  0
    7.2461   28.5389  200.8397 C   0  0  0  0  0  0  0  0  0  0  0  0
    5.9319   28.2941  200.4974 C   0  0  0  0  0  0  0  0  0  0  0  0
    4.9483   29.2586  200.7789 C   0  0  0  0  0  0  0  0  0  0  0  0
    3.6884   28.9958  200.4470 N   0  0  0  0  0  0  0  0  0  0  0  0
    3.3271   27.8409  199.8538 C   0  0  0  0  0  0  0  0  0  0  0  0
    4.2884   26.9367  199.5968 N   0  0  0  0  0  0  0  0  0  0  0  0
    5.5853   27.1105  199.8934 C   0  0  0  0  0  0  0  0  0  0  0  0
    6.5670   26.1422  199.6096 N   0  0  0  0  0  0  0  0  0  0  0  0
    6.3591   25.0195  198.7729 C   0  0  0  0  0  0  0  0  0  0  0  0
    5.6497   25.1249  197.5942 C   0  0  0  0  0  0  0  0  0  0  0  0
    5.4226   24.0660  196.7389 C   0  0  0  0  0  0  0  0  0  0  0  0
    4.5236   24.2230  195.2458 Cl  0  0  0  0  0  0  0  0  0  0  0  0
    5.9212   22.8019  197.0492 C   0  0  0  0  0  0  0  0  0  0  0  0
    5.7080   21.7512  196.2190 F   0  0  0  0  0  0  0  0  0  0  0  0
    6.6299   22.6851  198.2226 C   0  0  0  0  0  0  0  0  0  0  0  0
    6.8533   23.7547  199.0748 C   0  0  0  0  0  0  0  0  0  0  0  0
 20 19  2  0
 20 21  1  0
 18 13  1  0
 18 17  2  0
 18 19  1  0
 17 16  1  0
 17 22  1  0
 22 21  2  0
 22 23  1  0
 15 14  1  0
 30 28  1  0
 30 31  2  0
 31 24  1  0
 25 24  2  0
 25 26  1  0
 13 12  2  0
 16 11  2  0
  8  7  1  0
  8  9  1  0
  9 10  1  0
  2  1  1  0
  2  3  1  0
  4  3  1  0
  4  5  1  0
  7  6  1  0
  1  6  1  0
  5  6  1  0
 28 26  2  0
 28 29  1  0
 26 27  1  0
 24 23  1  0
 12 11  1  0
 12 14  1  0
 11 10  1  0
M  CHG  1   6   1
M  END
$$$$
