
     RDKit          3D

 31 34  0  0  0  0  0  0  0  0999 V2000
   12.6383   29.0380  204.4107 C   0  0  0  0  0  0  0  0  0  0  0  0
   13.6222   28.4953  205.4216 C   0  0  0  0  0  0  0  0  0  0  0  0
   14.9374   28.5132  204.9201 O   0  0  0  0  0  0  0  0  0  0  0  0
   15.2644   29.8185  204.4955 C   0  0  0  0  0  0  0  0  0  0  0  0
   14.3315   30.3015  203.4066 C   0  0  0  0  0  0  0  0  0  0  0  0
   13.3541   29.2711  203.1763 N   0  0  0  0  0  4  0  0  0  0  0  0
   12.4646   29.5789  202.0786 C   0  0  0  0  0  0  0  0  0  0  0  0
   11.0312   29.7362  202.5422 C   0  0  0  0  0  0  0  0  0  0  0  0
   10.1370   29.1991  201.4532 C   0  0  0  0  0  0  0  0  0  0  0  0
    9.0828   30.0490  201.1376 O   0  0  0  0  0  0  0  0  0  0  0  0
    7.7560   29.7274  200.9986 C   0  0  0  0  0  0  0  0  0  0  0  0
    6.8286   30.6414  201.4901 C   0  0  0  0  0  0  0  0  0  0  0  0
    5.4711   30.4049  201.3965 C   0  0  0  0  0  0  0  0  0  0  0  0
    7.2440   31.8172  202.0896 O   0  0  0  0  0  0  0  0  0  0  0  0
    6.5847   33.0255  201.7880 C   0  0  0  0  0  0  0  0  0  0  0  0
    7.3050   28.5681  200.4085 C   0  0  0  0  0  0  0  0  0  0  0  0
    5.9544   28.3061  200.3022 C   0  0  0  0  0  0  0  0  0  0  0  0
    5.0241   29.2347  200.8016 C   0  0  0  0  0  0  0  0  0  0  0  0
    3.7289   28.9556  200.6947 N   0  0  0  0  0  0  0  0  0  0  0  0
    3.2832   27.8176  200.1270 C   0  0  0  0  0  0  0  0  0  0  0  0
    4.1951   26.9477  199.6585 N   0  0  0  0  0  0  0  0  0  0  0  0
    5.5214   27.1401  199.7200 C   0  0  0  0  0  0  0  0  0  0  0  0
    6.4495   26.2078  199.2186 N   0  0  0  0  0  0  0  0  0  0  0  0
    6.1118   25.1262  198.3701 C   0  0  0  0  0  0  0  0  0  0  0  0
    5.2325   25.2865  197.3190 C   0  0  0  0  0  0  0  0  0  0  0  0
    4.8733   24.2695  196.4581 C   0  0  0  0  0  0  0  0  0  0  0  0
    3.7593   24.4960  195.1279 Cl  0  0  0  0  0  0  0  0  0  0  0  0
    5.4072   22.9932  196.6281 C   0  0  0  0  0  0  0  0  0  0  0  0
    5.0656   21.9832  195.7904 F   0  0  0  0  0  0  0  0  0  0  0  0
    6.2849   22.8218  197.6736 C   0  0  0  0  0  0  0  0  0  0  0  0
    6.6400   23.8497  198.5324 C   0  0  0  0  0  0  0  0  0  0  0  0
 20 19  2  0
 20 21  1  0
 18 13  1  0
 18 17  2  0
 18 19  1  0
 17 16  1  0
 17 22  1  0
 22 21  2  0
 22 23  1  0
 15 14  1  0
 30 28  1  0
 30 31  2  0
 31 24  1  0
 25 24  2  0
 25 26  1  0
 13 12  2  0
 16 11  2  0
  8  7  1  0
  8  9  1  0
  9 10  1  0
  2  1  1  0
  2  3  1  0
  4  3  1  0
  4  5  1  0
  7  6  1  0
  1  6  1  0
  5  6  1  0
 28 26  2  0
 28 29  1  0
 26 27  1  0
 24 23  1  0
 12 11  1  0
 12 14  1  0
 11 10  1  0
M  CHG  1   6   1
M  END
$$$$
