
     RDKit          3D

 31 34  0  0  0  0  0  0  0  0999 V2000
   14.6204   28.4876  202.9007 C   0  0  0  0  0  0  0  0  0  0  0  0
   15.2454   27.3944  203.7368 C   0  0  0  0  0  0  0  0  0  0  0  0
   14.3681   26.3055  203.8984 O   0  0  0  0  0  0  0  0  0  0  0  0
   13.9482   25.8439  202.6329 C   0  0  0  0  0  0  0  0  0  0  0  0
   13.2298   26.9245  201.8548 C   0  0  0  0  0  0  0  0  0  0  0  0
   13.2439   28.1227  202.6511 N   0  0  0  0  0  4  0  0  0  0  0  0
   12.4925   29.2024  202.0507 C   0  0  0  0  0  0  0  0  0  0  0  0
   11.0212   29.1287  202.4030 C   0  0  0  0  0  0  0  0  0  0  0  0
   10.2361   29.3284  201.1310 C   0  0  0  0  0  0  0  0  0  0  0  0
    9.1541   30.1886  201.2816 O   0  0  0  0  0  0  0  0  0  0  0  0
    7.8218   29.8996  201.1243 C   0  0  0  0  0  0  0  0  0  0  0  0
    6.9114   30.8691  201.5345 C   0  0  0  0  0  0  0  0  0  0  0  0
    5.5500   30.6687  201.4166 C   0  0  0  0  0  0  0  0  0  0  0  0
    7.3481   32.0656  202.0750 O   0  0  0  0  0  0  0  0  0  0  0  0
    6.4075   33.0334  202.4799 C   0  0  0  0  0  0  0  0  0  0  0  0
    7.3498   28.7212  200.5912 C   0  0  0  0  0  0  0  0  0  0  0  0
    5.9948   28.4943  200.4623 C   0  0  0  0  0  0  0  0  0  0  0  0
    5.0818   29.4789  200.8794 C   0  0  0  0  0  0  0  0  0  0  0  0
    3.7817   29.2333  200.7525 N   0  0  0  0  0  0  0  0  0  0  0  0
    3.3150   28.0774  200.2407 C   0  0  0  0  0  0  0  0  0  0  0  0
    4.2107   27.1537  199.8504 N   0  0  0  0  0  0  0  0  0  0  0  0
    5.5404   27.3092  199.9380 C   0  0  0  0  0  0  0  0  0  0  0  0
    6.4512   26.3209  199.5190 N   0  0  0  0  0  0  0  0  0  0  0  0
    6.1002   25.1968  198.7334 C   0  0  0  0  0  0  0  0  0  0  0  0
    5.2322   25.3099  197.6669 C   0  0  0  0  0  0  0  0  0  0  0  0
    4.8610   24.2499  196.8649 C   0  0  0  0  0  0  0  0  0  0  0  0
    3.7617   24.4167  195.5137 Cl  0  0  0  0  0  0  0  0  0  0  0  0
    5.3699   22.9767  197.1152 C   0  0  0  0  0  0  0  0  0  0  0  0
    5.0162   21.9248  196.3361 F   0  0  0  0  0  0  0  0  0  0  0  0
    6.2362   22.8522  198.1768 C   0  0  0  0  0  0  0  0  0  0  0  0
    6.6035   23.9229  198.9760 C   0  0  0  0  0  0  0  0  0  0  0  0
 20 19  2  0
 20 21  1  0
 18 13  1  0
 18 17  2  0
 18 19  1  0
 17 16  1  0
 17 22  1  0
 22 21  2  0
 22 23  1  0
 15 14  1  0
 30 28  1  0
 30 31  2  0
 31 24  1  0
 25 24  2  0
 25 26  1  0
 13 12  2  0
 16 11  2  0
  8  7  1  0
  8  9  1  0
  9 10  1  0
  2  1  1  0
  2  3  1  0
  4  3  1  0
  4  5  1  0
  7  6  1  0
  1  6  1  0
  5  6  1  0
 28 26  2  0
 28 29  1  0
 26 27  1  0
 24 23  1  0
 12 11  1  0
 12 14  1  0
 11 10  1  0
M  CHG  1   6   1
M  END
$$$$
