
     RDKit          3D

 31 34  0  0  0  0  0  0  0  0999 V2000
   14.2074   27.0917  202.6894 C   0  0  0  0  0  0  0  0  0  0  0  0
   15.5964   27.5515  203.0690 C   0  0  0  0  0  0  0  0  0  0  0  0
   15.6427   28.9457  203.2579 O   0  0  0  0  0  0  0  0  0  0  0  0
   14.6698   29.3277  204.2058 C   0  0  0  0  0  0  0  0  0  0  0  0
   13.2747   28.9529  203.7558 C   0  0  0  0  0  0  0  0  0  0  0  0
   13.3886   28.2674  202.4960 N   0  0  0  0  0  4  0  0  0  0  0  0
   12.1037   27.9488  201.9143 C   0  0  0  0  0  0  0  0  0  0  0  0
   11.1042   29.0705  202.1077 C   0  0  0  0  0  0  0  0  0  0  0  0
    9.8286   28.6714  201.4095 C   0  0  0  0  0  0  0  0  0  0  0  0
    8.7851   29.5669  201.6157 O   0  0  0  0  0  0  0  0  0  0  0  0
    7.4514   29.3792  201.3522 C   0  0  0  0  0  0  0  0  0  0  0  0
    6.5739   30.3634  201.7975 C   0  0  0  0  0  0  0  0  0  0  0  0
    5.2138   30.2620  201.5798 C   0  0  0  0  0  0  0  0  0  0  0  0
    7.0430   31.4753  202.4744 O   0  0  0  0  0  0  0  0  0  0  0  0
    6.1394   32.4759  202.8840 C   0  0  0  0  0  0  0  0  0  0  0  0
    6.9477   28.2868  200.6823 C   0  0  0  0  0  0  0  0  0  0  0  0
    5.5932   28.1598  200.4516 C   0  0  0  0  0  0  0  0  0  0  0  0
    4.7135   29.1586  200.9050 C   0  0  0  0  0  0  0  0  0  0  0  0
    3.4124   29.0092  200.6778 N   0  0  0  0  0  0  0  0  0  0  0  0
    2.9139   27.9369  200.0314 C   0  0  0  0  0  0  0  0  0  0  0  0
    3.7782   26.9974  199.6094 N   0  0  0  0  0  0  0  0  0  0  0  0
    5.1061   27.0589  199.7907 C   0  0  0  0  0  0  0  0  0  0  0  0
    5.9834   26.0567  199.3350 N   0  0  0  0  0  0  0  0  0  0  0  0
    5.6037   24.9962  198.4777 C   0  0  0  0  0  0  0  0  0  0  0  0
    5.7761   23.6781  198.8474 C   0  0  0  0  0  0  0  0  0  0  0  0
    5.4186   22.6066  198.0547 C   0  0  0  0  0  0  0  0  0  0  0  0
    5.6420   20.9419  198.5455 Cl  0  0  0  0  0  0  0  0  0  0  0  0
    4.8489   22.8276  196.8020 C   0  0  0  0  0  0  0  0  0  0  0  0
    4.4909   21.7858  196.0112 F   0  0  0  0  0  0  0  0  0  0  0  0
    4.6728   24.1383  196.4227 C   0  0  0  0  0  0  0  0  0  0  0  0
    5.0344   25.2078  197.2262 C   0  0  0  0  0  0  0  0  0  0  0  0
 20 19  2  0
 20 21  1  0
 18 13  1  0
 18 17  2  0
 18 19  1  0
 17 16  1  0
 17 22  1  0
 22 21  2  0
 22 23  1  0
 15 14  1  0
 30 28  1  0
 30 31  2  0
 31 24  1  0
 25 24  2  0
 25 26  1  0
 13 12  2  0
 16 11  2  0
  8  7  1  0
  8  9  1  0
  9 10  1  0
  2  1  1  0
  2  3  1  0
  4  3  1  0
  4  5  1  0
  7  6  1  0
  1  6  1  0
  5  6  1  0
 28 26  2  0
 28 29  1  0
 26 27  1  0
 24 23  1  0
 12 11  1  0
 12 14  1  0
 11 10  1  0
M  CHG  1   6   1
M  END
$$$$
