
     RDKit          3D

 31 34  0  0  0  0  0  0  0  0999 V2000
  -15.0319   11.4329  160.3494 C   0  0  0  0  0  0  0  0  0  0  0  0
  -14.9467   12.7944  159.6984 C   0  0  0  0  0  0  0  0  0  0  0  0
  -16.2198   13.2688  159.3300 O   0  0  0  0  0  0  0  0  0  0  0  0
  -17.0718   13.2606  160.4548 C   0  0  0  0  0  0  0  0  0  0  0  0
  -17.2280   11.8685  161.0266 C   0  0  0  0  0  0  0  0  0  0  0  0
  -16.4016   10.9804  160.2531 N   0  0  0  0  0  4  0  0  0  0  0  0
  -16.5487    9.5962  160.6445 C   0  0  0  0  0  0  0  0  0  0  0  0
  -15.5241    8.7080  159.9694 C   0  0  0  0  0  0  0  0  0  0  0  0
  -15.2011    7.5807  160.9175 C   0  0  0  0  0  0  0  0  0  0  0  0
  -15.9439    6.4300  160.6776 O   0  0  0  0  0  0  0  0  0  0  0  0
  -15.4780    5.1810  160.3517 C   0  0  0  0  0  0  0  0  0  0  0  0
  -16.3649    4.1180  160.4939 C   0  0  0  0  0  0  0  0  0  0  0  0
  -15.9869    2.8245  160.1913 C   0  0  0  0  0  0  0  0  0  0  0  0
  -17.6556    4.3295  160.9454 O   0  0  0  0  0  0  0  0  0  0  0  0
  -18.6197    3.3114  160.8059 C   0  0  0  0  0  0  0  0  0  0  0  0
  -14.2015    4.9318  159.8998 C   0  0  0  0  0  0  0  0  0  0  0  0
  -13.7971    3.6492  159.5906 C   0  0  0  0  0  0  0  0  0  0  0  0
  -14.6994    2.5808  159.7374 C   0  0  0  0  0  0  0  0  0  0  0  0
  -14.2834    1.3536  159.4410 N   0  0  0  0  0  0  0  0  0  0  0  0
  -13.0320    1.1037  159.0080 C   0  0  0  0  0  0  0  0  0  0  0  0
  -12.1906    2.1442  158.8773 N   0  0  0  0  0  0  0  0  0  0  0  0
  -12.5172    3.4164  159.1508 C   0  0  0  0  0  0  0  0  0  0  0  0
  -11.6108    4.4833  159.0023 N   0  0  0  0  0  0  0  0  0  0  0  0
  -10.3482    4.3731  158.3717 C   0  0  0  0  0  0  0  0  0  0  0  0
  -10.1089    3.4151  157.4081 C   0  0  0  0  0  0  0  0  0  0  0  0
   -8.9009    3.2671  156.7576 C   0  0  0  0  0  0  0  0  0  0  0  0
   -8.6203    2.0475  155.5346 Cl  0  0  0  0  0  0  0  0  0  0  0  0
   -7.8372    4.1139  157.0648 C   0  0  0  0  0  0  0  0  0  0  0  0
   -6.6440    3.9826  156.4341 F   0  0  0  0  0  0  0  0  0  0  0  0
   -8.0644    5.0728  158.0248 C   0  0  0  0  0  0  0  0  0  0  0  0
   -9.2816    5.2140  158.6720 C   0  0  0  0  0  0  0  0  0  0  0  0
 20 19  2  0
 20 21  1  0
 18 13  1  0
 18 17  2  0
 18 19  1  0
 17 16  1  0
 17 22  1  0
 22 21  2  0
 22 23  1  0
 15 14  1  0
 30 28  1  0
 30 31  2  0
 31 24  1  0
 25 24  2  0
 25 26  1  0
 13 12  2  0
 16 11  2  0
  8  7  1  0
  8  9  1  0
  9 10  1  0
  2  1  1  0
  2  3  1  0
  4  3  1  0
  4  5  1  0
  7  6  1  0
  1  6  1  0
  5  6  1  0
 28 26  2  0
 28 29  1  0
 26 27  1  0
 24 23  1  0
 12 11  1  0
 12 14  1  0
 11 10  1  0
M  CHG  1   6   1
M  END
$$$$
