
     RDKit          3D

 31 34  0  0  0  0  0  0  0  0999 V2000
  -16.5625   12.1549  160.1785 C   0  0  0  0  0  0  0  0  0  0  0  0
  -17.6279   13.2235  160.0898 C   0  0  0  0  0  0  0  0  0  0  0  0
  -18.8642   12.7586  160.5764 O   0  0  0  0  0  0  0  0  0  0  0  0
  -18.7017   12.2660  161.8886 C   0  0  0  0  0  0  0  0  0  0  0  0
  -17.7096   11.1247  161.9375 C   0  0  0  0  0  0  0  0  0  0  0  0
  -17.1986   10.9293  160.6069 N   0  0  0  0  0  4  0  0  0  0  0  0
  -16.3125    9.7907  160.5095 C   0  0  0  0  0  0  0  0  0  0  0  0
  -17.0106    8.5000  160.8853 C   0  0  0  0  0  0  0  0  0  0  0  0
  -16.0332    7.3721  160.6693 C   0  0  0  0  0  0  0  0  0  0  0  0
  -16.6484    6.1567  160.3905 O   0  0  0  0  0  0  0  0  0  0  0  0
  -16.0479    4.9523  160.1222 C   0  0  0  0  0  0  0  0  0  0  0  0
  -16.8419    3.8136  160.2209 C   0  0  0  0  0  0  0  0  0  0  0  0
  -16.3263    2.5570  159.9704 C   0  0  0  0  0  0  0  0  0  0  0  0
  -18.1759    3.9103  160.5753 O   0  0  0  0  0  0  0  0  0  0  0  0
  -18.8856    2.7508  160.9461 C   0  0  0  0  0  0  0  0  0  0  0  0
  -14.7245    4.8167  159.7671 C   0  0  0  0  0  0  0  0  0  0  0  0
  -14.1833    3.5734  159.5118 C   0  0  0  0  0  0  0  0  0  0  0  0
  -14.9924    2.4280  159.6140 C   0  0  0  0  0  0  0  0  0  0  0  0
  -14.4456    1.2410  159.3711 N   0  0  0  0  0  0  0  0  0  0  0  0
  -13.1484    1.1026  159.0331 C   0  0  0  0  0  0  0  0  0  0  0  0
  -12.3984    2.2148  158.9432 N   0  0  0  0  0  0  0  0  0  0  0  0
  -12.8588    3.4546  159.1687 C   0  0  0  0  0  0  0  0  0  0  0  0
  -12.0453    4.5989  159.0650 N   0  0  0  0  0  0  0  0  0  0  0  0
  -10.7280    4.5945  158.5470 C   0  0  0  0  0  0  0  0  0  0  0  0
  -10.3141    3.6337  157.6474 C   0  0  0  0  0  0  0  0  0  0  0  0
   -9.0454    3.5858  157.1066 C   0  0  0  0  0  0  0  0  0  0  0  0
   -8.5428    2.3603  155.9631 Cl  0  0  0  0  0  0  0  0  0  0  0  0
   -8.0995    4.5445  157.4657 C   0  0  0  0  0  0  0  0  0  0  0  0
   -6.8488    4.5122  156.9426 F   0  0  0  0  0  0  0  0  0  0  0  0
   -8.5012    5.5072  158.3626 C   0  0  0  0  0  0  0  0  0  0  0  0
   -9.7779    5.5475  158.8997 C   0  0  0  0  0  0  0  0  0  0  0  0
 20 19  2  0
 20 21  1  0
 18 13  1  0
 18 17  2  0
 18 19  1  0
 17 16  1  0
 17 22  1  0
 22 21  2  0
 22 23  1  0
 15 14  1  0
 30 28  1  0
 30 31  2  0
 31 24  1  0
 25 24  2  0
 25 26  1  0
 13 12  2  0
 16 11  2  0
  8  7  1  0
  8  9  1  0
  9 10  1  0
  2  1  1  0
  2  3  1  0
  4  3  1  0
  4  5  1  0
  7  6  1  0
  1  6  1  0
  5  6  1  0
 28 26  2  0
 28 29  1  0
 26 27  1  0
 24 23  1  0
 12 11  1  0
 12 14  1  0
 11 10  1  0
M  CHG  1   6   1
M  END
$$$$
