
     RDKit          3D

 31 34  0  0  0  0  0  0  0  0999 V2000
  -16.9582   11.9902  160.4222 C   0  0  0  0  0  0  0  0  0  0  0  0
  -18.1061   12.9654  160.2952 C   0  0  0  0  0  0  0  0  0  0  0  0
  -19.3244   12.3794  160.6876 O   0  0  0  0  0  0  0  0  0  0  0  0
  -19.2005   11.8586  161.9932 C   0  0  0  0  0  0  0  0  0  0  0  0
  -18.1166   10.8060  162.0736 C   0  0  0  0  0  0  0  0  0  0  0  0
  -17.5090   10.7005  160.7738 N   0  0  0  0  0  4  0  0  0  0  0  0
  -16.5217    9.6465  160.7015 C   0  0  0  0  0  0  0  0  0  0  0  0
  -17.0927    8.3097  161.1275 C   0  0  0  0  0  0  0  0  0  0  0  0
  -16.0477    7.2579  160.8526 C   0  0  0  0  0  0  0  0  0  0  0  0
  -16.5276    6.1873  160.1063 O   0  0  0  0  0  0  0  0  0  0  0  0
  -15.9425    4.9593  159.9249 C   0  0  0  0  0  0  0  0  0  0  0  0
  -16.7400    3.8400  160.1441 C   0  0  0  0  0  0  0  0  0  0  0  0
  -16.2397    2.5622  159.9873 C   0  0  0  0  0  0  0  0  0  0  0  0
  -18.0623    3.9780  160.5276 O   0  0  0  0  0  0  0  0  0  0  0  0
  -18.8400    2.8300  160.7784 C   0  0  0  0  0  0  0  0  0  0  0  0
  -14.6312    4.7826  159.5443 C   0  0  0  0  0  0  0  0  0  0  0  0
  -14.1052    3.5174  159.3808 C   0  0  0  0  0  0  0  0  0  0  0  0
  -14.9177    2.3918  159.6045 C   0  0  0  0  0  0  0  0  0  0  0  0
  -14.3855    1.1839  159.4485 N   0  0  0  0  0  0  0  0  0  0  0  0
  -13.0998    1.0060  159.0859 C   0  0  0  0  0  0  0  0  0  0  0  0
  -12.3462    2.1001  158.8790 N   0  0  0  0  0  0  0  0  0  0  0  0
  -12.7923    3.3585  159.0107 C   0  0  0  0  0  0  0  0  0  0  0  0
  -11.9754    4.4827  158.7856 N   0  0  0  0  0  0  0  0  0  0  0  0
  -10.6683    4.4215  158.2455 C   0  0  0  0  0  0  0  0  0  0  0  0
  -10.3129    3.4466  157.3361 C   0  0  0  0  0  0  0  0  0  0  0  0
   -9.0567    3.3440  156.7741 C   0  0  0  0  0  0  0  0  0  0  0  0
   -8.6285    2.1018  155.6184 Cl  0  0  0  0  0  0  0  0  0  0  0  0
   -8.0630    4.2581  157.1203 C   0  0  0  0  0  0  0  0  0  0  0  0
   -6.8239    4.1720  156.5763 F   0  0  0  0  0  0  0  0  0  0  0  0
   -8.4062    5.2344  158.0269 C   0  0  0  0  0  0  0  0  0  0  0  0
   -9.6709    5.3295  158.5853 C   0  0  0  0  0  0  0  0  0  0  0  0
 20 19  2  0
 20 21  1  0
 18 13  1  0
 18 17  2  0
 18 19  1  0
 17 16  1  0
 17 22  1  0
 22 21  2  0
 22 23  1  0
 15 14  1  0
 30 28  1  0
 30 31  2  0
 31 24  1  0
 25 24  2  0
 25 26  1  0
 13 12  2  0
 16 11  2  0
  8  7  1  0
  8  9  1  0
  9 10  1  0
  2  1  1  0
  2  3  1  0
  4  3  1  0
  4  5  1  0
  7  6  1  0
  1  6  1  0
  5  6  1  0
 28 26  2  0
 28 29  1  0
 26 27  1  0
 24 23  1  0
 12 11  1  0
 12 14  1  0
 11 10  1  0
M  CHG  1   6   1
M  END
$$$$
