
     RDKit          3D

 31 34  0  0  0  0  0  0  0  0999 V2000
   13.9622   29.7626  203.1819 C   0  0  0  0  0  0  0  0  0  0  0  0
   15.3609   30.2722  202.9202 C   0  0  0  0  0  0  0  0  0  0  0  0
   15.4517   31.6600  203.1381 O   0  0  0  0  0  0  0  0  0  0  0  0
   15.0006   31.9654  204.4397 C   0  0  0  0  0  0  0  0  0  0  0  0
   13.5624   31.5428  204.6455 C   0  0  0  0  0  0  0  0  0  0  0  0
   13.1142   30.9057  203.4359 N   0  0  0  0  0  4  0  0  0  0  0  0
   11.7136   30.5486  203.4775 C   0  0  0  0  0  0  0  0  0  0  0  0
   11.2639   29.8820  202.1938 C   0  0  0  0  0  0  0  0  0  0  0  0
    9.8241   29.4710  202.3722 C   0  0  0  0  0  0  0  0  0  0  0  0
    8.9404   30.2093  201.5928 O   0  0  0  0  0  0  0  0  0  0  0  0
    7.6419   29.9013  201.2730 C   0  0  0  0  0  0  0  0  0  0  0  0
    6.6739   30.8565  201.5686 C   0  0  0  0  0  0  0  0  0  0  0  0
    5.3404   30.6366  201.2843 C   0  0  0  0  0  0  0  0  0  0  0  0
    7.0233   32.0581  202.1591 O   0  0  0  0  0  0  0  0  0  0  0  0
    7.0704   33.2313  201.3799 C   0  0  0  0  0  0  0  0  0  0  0  0
    7.2563   28.7172  200.6856 C   0  0  0  0  0  0  0  0  0  0  0  0
    5.9309   28.4710  200.3912 C   0  0  0  0  0  0  0  0  0  0  0  0
    4.9592   29.4414  200.6934 C   0  0  0  0  0  0  0  0  0  0  0  0
    3.6882   29.1772  200.4077 N   0  0  0  0  0  0  0  0  0  0  0  0
    3.3049   28.0156  199.8420 C   0  0  0  0  0  0  0  0  0  0  0  0
    4.2553   27.1060  199.5643 N   0  0  0  0  0  0  0  0  0  0  0  0
    5.5617   27.2805  199.8146 C   0  0  0  0  0  0  0  0  0  0  0  0
    6.5315   26.3065  199.5103 N   0  0  0  0  0  0  0  0  0  0  0  0
    6.3036   25.1931  198.6662 C   0  0  0  0  0  0  0  0  0  0  0  0
    5.3782   25.2453  197.6442 C   0  0  0  0  0  0  0  0  0  0  0  0
    5.1206   24.1934  196.7889 C   0  0  0  0  0  0  0  0  0  0  0  0
    3.9453   24.2828  195.4956 Cl  0  0  0  0  0  0  0  0  0  0  0  0
    5.8138   22.9929  196.9343 C   0  0  0  0  0  0  0  0  0  0  0  0
    5.5735   21.9500  196.1015 F   0  0  0  0  0  0  0  0  0  0  0  0
    6.7388   22.9294  197.9507 C   0  0  0  0  0  0  0  0  0  0  0  0
    6.9909   23.9916  198.8042 C   0  0  0  0  0  0  0  0  0  0  0  0
 20 19  2  0
 20 21  1  0
 18 13  1  0
 18 17  2  0
 18 19  1  0
 17 16  1  0
 17 22  1  0
 22 21  2  0
 22 23  1  0
 15 14  1  0
 30 28  1  0
 30 31  2  0
 31 24  1  0
 25 24  2  0
 25 26  1  0
 13 12  2  0
 16 11  2  0
  8  7  1  0
  8  9  1  0
  9 10  1  0
  2  1  1  0
  2  3  1  0
  4  3  1  0
  4  5  1  0
  7  6  1  0
  1  6  1  0
  5  6  1  0
 28 26  2  0
 28 29  1  0
 26 27  1  0
 24 23  1  0
 12 11  1  0
 12 14  1  0
 11 10  1  0
M  CHG  1   6   1
M  END
$$$$
