
     RDKit          3D

 31 34  0  0  0  0  0  0  0  0999 V2000
   14.0610   30.3262  202.7154 C   0  0  0  0  0  0  0  0  0  0  0  0
   15.0019   30.7236  203.8297 C   0  0  0  0  0  0  0  0  0  0  0  0
   15.2768   29.6379  204.6823 O   0  0  0  0  0  0  0  0  0  0  0  0
   15.7656   28.5526  203.9245 C   0  0  0  0  0  0  0  0  0  0  0  0
   14.7631   28.1015  202.8848 C   0  0  0  0  0  0  0  0  0  0  0  0
   13.6211   28.9725  202.9684 N   0  0  0  0  0  4  0  0  0  0  0  0
   12.5470   28.5730  202.0864 C   0  0  0  0  0  0  0  0  0  0  0  0
   11.4846   29.6465  201.9707 C   0  0  0  0  0  0  0  0  0  0  0  0
   10.1856   28.9675  201.6162 C   0  0  0  0  0  0  0  0  0  0  0  0
    9.0762   29.7934  201.7589 O   0  0  0  0  0  0  0  0  0  0  0  0
    7.7723   29.5135  201.4351 C   0  0  0  0  0  0  0  0  0  0  0  0
    6.8248   30.4910  201.7245 C   0  0  0  0  0  0  0  0  0  0  0  0
    5.4877   30.3000  201.4359 C   0  0  0  0  0  0  0  0  0  0  0  0
    7.1988   31.6861  202.3129 O   0  0  0  0  0  0  0  0  0  0  0  0
    6.2252   32.6711  202.5728 C   0  0  0  0  0  0  0  0  0  0  0  0
    7.3625   28.3367  200.8496 C   0  0  0  0  0  0  0  0  0  0  0  0
    6.0330   28.1193  200.5510 C   0  0  0  0  0  0  0  0  0  0  0  0
    5.0821   29.1119  200.8468 C   0  0  0  0  0  0  0  0  0  0  0  0
    3.8066   28.8753  200.5571 N   0  0  0  0  0  0  0  0  0  0  0  0
    3.3995   27.7210  199.9933 C   0  0  0  0  0  0  0  0  0  0  0  0
    4.3304   26.7896  199.7216 N   0  0  0  0  0  0  0  0  0  0  0  0
    5.6395   26.9357  199.9763 C   0  0  0  0  0  0  0  0  0  0  0  0
    6.5883   25.9393  199.6783 N   0  0  0  0  0  0  0  0  0  0  0  0
    6.3214   24.7980  198.8845 C   0  0  0  0  0  0  0  0  0  0  0  0
    5.5594   24.8843  197.7375 C   0  0  0  0  0  0  0  0  0  0  0  0
    5.2736   23.8067  196.9243 C   0  0  0  0  0  0  0  0  0  0  0  0
    4.3084   23.9394  195.4708 Cl  0  0  0  0  0  0  0  0  0  0  0  0
    5.7638   22.5424  197.2469 C   0  0  0  0  0  0  0  0  0  0  0  0
    5.4932   21.4733  196.4578 F   0  0  0  0  0  0  0  0  0  0  0  0
    6.5246   22.4446  198.3890 C   0  0  0  0  0  0  0  0  0  0  0  0
    6.8068   23.5329  199.1990 C   0  0  0  0  0  0  0  0  0  0  0  0
 20 19  2  0
 20 21  1  0
 18 13  1  0
 18 17  2  0
 18 19  1  0
 17 16  1  0
 17 22  1  0
 22 21  2  0
 22 23  1  0
 15 14  1  0
 30 28  1  0
 30 31  2  0
 31 24  1  0
 25 24  2  0
 25 26  1  0
 13 12  2  0
 16 11  2  0
  8  7  1  0
  8  9  1  0
  9 10  1  0
  2  1  1  0
  2  3  1  0
  4  3  1  0
  4  5  1  0
  7  6  1  0
  1  6  1  0
  5  6  1  0
 28 26  2  0
 28 29  1  0
 26 27  1  0
 24 23  1  0
 12 11  1  0
 12 14  1  0
 11 10  1  0
M  CHG  1   6   1
M  END
$$$$
