
     RDKit          3D

 31 34  0  0  0  0  0  0  0  0999 V2000
  -18.7297   10.9809  162.0026 C   0  0  0  0  0  0  0  0  0  0  0  0
  -19.1041   12.3967  161.6281 C   0  0  0  0  0  0  0  0  0  0  0  0
  -18.2074   12.9332  160.6849 O   0  0  0  0  0  0  0  0  0  0  0  0
  -18.1329   12.0799  159.5636 C   0  0  0  0  0  0  0  0  0  0  0  0
  -17.6530   10.6968  159.9456 C   0  0  0  0  0  0  0  0  0  0  0  0
  -17.4653   10.6751  161.3719 N   0  0  0  0  0  4  0  0  0  0  0  0
  -16.9068    9.4276  161.8438 C   0  0  0  0  0  0  0  0  0  0  0  0
  -17.5434    8.2328  161.1644 C   0  0  0  0  0  0  0  0  0  0  0  0
  -16.4396    7.2719  160.8008 C   0  0  0  0  0  0  0  0  0  0  0  0
  -16.8912    6.1477  160.1186 O   0  0  0  0  0  0  0  0  0  0  0  0
  -16.2324    4.9591  159.9271 C   0  0  0  0  0  0  0  0  0  0  0  0
  -16.9860    3.7939  160.0322 C   0  0  0  0  0  0  0  0  0  0  0  0
  -16.4109    2.5506  159.8564 C   0  0  0  0  0  0  0  0  0  0  0  0
  -18.3387    3.8500  160.3180 O   0  0  0  0  0  0  0  0  0  0  0  0
  -18.9789    2.7317  160.8880 C   0  0  0  0  0  0  0  0  0  0  0  0
  -14.8888    4.8637  159.6417 C   0  0  0  0  0  0  0  0  0  0  0  0
  -14.2882    3.6345  159.4618 C   0  0  0  0  0  0  0  0  0  0  0  0
  -15.0569    2.4621  159.5699 C   0  0  0  0  0  0  0  0  0  0  0  0
  -14.4536    1.2898  159.4006 N   0  0  0  0  0  0  0  0  0  0  0  0
  -13.1369    1.1911  159.1310 C   0  0  0  0  0  0  0  0  0  0  0  0
  -12.4265    2.3285  159.0335 N   0  0  0  0  0  0  0  0  0  0  0  0
  -12.9448    3.5564  159.1877 C   0  0  0  0  0  0  0  0  0  0  0  0
  -12.1717    4.7277  159.0784 N   0  0  0  0  0  0  0  0  0  0  0  0
  -10.8424    4.7616  158.5927 C   0  0  0  0  0  0  0  0  0  0  0  0
  -10.4031    3.8635  157.6419 C   0  0  0  0  0  0  0  0  0  0  0  0
   -9.1217    3.8551  157.1296 C   0  0  0  0  0  0  0  0  0  0  0  0
   -8.5866    2.7093  155.9201 Cl  0  0  0  0  0  0  0  0  0  0  0  0
   -8.1889    4.7908  157.5736 C   0  0  0  0  0  0  0  0  0  0  0  0
   -6.9261    4.7969  157.0795 F   0  0  0  0  0  0  0  0  0  0  0  0
   -8.6161    5.6911  158.5222 C   0  0  0  0  0  0  0  0  0  0  0  0
   -9.9053    5.6919  159.0301 C   0  0  0  0  0  0  0  0  0  0  0  0
 20 19  2  0
 20 21  1  0
 18 13  1  0
 18 17  2  0
 18 19  1  0
 17 16  1  0
 17 22  1  0
 22 21  2  0
 22 23  1  0
 15 14  1  0
 30 28  1  0
 30 31  2  0
 31 24  1  0
 25 24  2  0
 25 26  1  0
 13 12  2  0
 16 11  2  0
  8  7  1  0
  8  9  1  0
  9 10  1  0
  2  1  1  0
  2  3  1  0
  4  3  1  0
  4  5  1  0
  7  6  1  0
  1  6  1  0
  5  6  1  0
 28 26  2  0
 28 29  1  0
 26 27  1  0
 24 23  1  0
 12 11  1  0
 12 14  1  0
 11 10  1  0
M  CHG  1   6   1
M  END
$$$$
