
     RDKit          3D

 31 34  0  0  0  0  0  0  0  0999 V2000
  -17.0411   11.1762  160.9444 C   0  0  0  0  0  0  0  0  0  0  0  0
  -17.4805   12.6202  160.8629 C   0  0  0  0  0  0  0  0  0  0  0  0
  -18.8832   12.7292  160.8192 O   0  0  0  0  0  0  0  0  0  0  0  0
  -19.4451   12.0555  161.9244 C   0  0  0  0  0  0  0  0  0  0  0  0
  -19.0801   10.5871  161.9275 C   0  0  0  0  0  0  0  0  0  0  0  0
  -18.2165   10.3465  160.8023 N   0  0  0  0  0  4  0  0  0  0  0  0
  -17.8826    8.9487  160.6420 C   0  0  0  0  0  0  0  0  0  0  0  0
  -16.5475    8.6126  161.2737 C   0  0  0  0  0  0  0  0  0  0  0  0
  -15.8770    7.5801  160.4029 C   0  0  0  0  0  0  0  0  0  0  0  0
  -16.4525    6.3183  160.5029 O   0  0  0  0  0  0  0  0  0  0  0  0
  -15.8771    5.1063  160.2144 C   0  0  0  0  0  0  0  0  0  0  0  0
  -16.6774    3.9764  160.3554 C   0  0  0  0  0  0  0  0  0  0  0  0
  -16.1865    2.7133  160.0888 C   0  0  0  0  0  0  0  0  0  0  0  0
  -17.9929    4.0889  160.7693 O   0  0  0  0  0  0  0  0  0  0  0  0
  -18.8415    2.9655  160.7114 C   0  0  0  0  0  0  0  0  0  0  0  0
  -14.5726    4.9551  159.8005 C   0  0  0  0  0  0  0  0  0  0  0  0
  -14.0562    3.7049  159.5278 C   0  0  0  0  0  0  0  0  0  0  0  0
  -14.8715    2.5685  159.6730 C   0  0  0  0  0  0  0  0  0  0  0  0
  -14.3484    1.3747  159.4123 N   0  0  0  0  0  0  0  0  0  0  0  0
  -13.0694    1.2210  159.0166 C   0  0  0  0  0  0  0  0  0  0  0  0
  -12.3129    2.3249  158.8866 N   0  0  0  0  0  0  0  0  0  0  0  0
  -12.7500    3.5706  159.1257 C   0  0  0  0  0  0  0  0  0  0  0  0
  -11.9304    4.7057  158.9790 N   0  0  0  0  0  0  0  0  0  0  0  0
  -10.6627    4.6960  158.3491 C   0  0  0  0  0  0  0  0  0  0  0  0
  -10.1244    3.5328  157.8383 C   0  0  0  0  0  0  0  0  0  0  0  0
   -8.8976    3.4672  157.2099 C   0  0  0  0  0  0  0  0  0  0  0  0
   -8.2356    1.9814  156.5648 Cl  0  0  0  0  0  0  0  0  0  0  0  0
   -8.1280    4.6203  157.0644 C   0  0  0  0  0  0  0  0  0  0  0  0
   -6.9209    4.5732  156.4485 F   0  0  0  0  0  0  0  0  0  0  0  0
   -8.6548    5.7860  157.5707 C   0  0  0  0  0  0  0  0  0  0  0  0
   -9.8884    5.8419  158.1996 C   0  0  0  0  0  0  0  0  0  0  0  0
 20 19  2  0
 20 21  1  0
 18 13  1  0
 18 17  2  0
 18 19  1  0
 17 16  1  0
 17 22  1  0
 22 21  2  0
 22 23  1  0
 15 14  1  0
 30 28  1  0
 30 31  2  0
 31 24  1  0
 25 24  2  0
 25 26  1  0
 13 12  2  0
 16 11  2  0
  8  7  1  0
  8  9  1  0
  9 10  1  0
  2  1  1  0
  2  3  1  0
  4  3  1  0
  4  5  1  0
  7  6  1  0
  1  6  1  0
  5  6  1  0
 28 26  2  0
 28 29  1  0
 26 27  1  0
 24 23  1  0
 12 11  1  0
 12 14  1  0
 11 10  1  0
M  CHG  1   6   1
M  END
$$$$
