
     RDKit          3D

 31 34  0  0  0  0  0  0  0  0999 V2000
   13.9522   31.0271  203.4698 C   0  0  0  0  0  0  0  0  0  0  0  0
   15.2943   30.4045  203.7794 C   0  0  0  0  0  0  0  0  0  0  0  0
   15.4308   29.1452  203.1654 O   0  0  0  0  0  0  0  0  0  0  0  0
   15.1992   29.2669  201.7788 C   0  0  0  0  0  0  0  0  0  0  0  0
   13.8099   29.7914  201.4889 C   0  0  0  0  0  0  0  0  0  0  0  0
   13.1662   30.0508  202.7492 N   0  0  0  0  0  4  0  0  0  0  0  0
   11.7879   30.4617  202.5993 C   0  0  0  0  0  0  0  0  0  0  0  0
   10.9632   29.4148  201.8793 C   0  0  0  0  0  0  0  0  0  0  0  0
    9.5411   29.5399  202.3649 C   0  0  0  0  0  0  0  0  0  0  0  0
    8.7053   30.1845  201.4597 O   0  0  0  0  0  0  0  0  0  0  0  0
    7.4118   29.8628  201.1332 C   0  0  0  0  0  0  0  0  0  0  0  0
    6.4366   30.8213  201.3931 C   0  0  0  0  0  0  0  0  0  0  0  0
    5.1073   30.5884  201.0994 C   0  0  0  0  0  0  0  0  0  0  0  0
    6.7745   32.0391  201.9563 O   0  0  0  0  0  0  0  0  0  0  0  0
    5.7699   32.9944  202.2084 C   0  0  0  0  0  0  0  0  0  0  0  0
    7.0376   28.6624  200.5721 C   0  0  0  0  0  0  0  0  0  0  0  0
    5.7166   28.4031  200.2692 C   0  0  0  0  0  0  0  0  0  0  0  0
    4.7377   29.3767  200.5352 C   0  0  0  0  0  0  0  0  0  0  0  0
    3.4711   29.0999  200.2420 N   0  0  0  0  0  0  0  0  0  0  0  0
    3.0989   27.9226  199.7021 C   0  0  0  0  0  0  0  0  0  0  0  0
    4.0560   27.0101  199.4588 N   0  0  0  0  0  0  0  0  0  0  0  0
    5.3588   27.1966  199.7193 C   0  0  0  0  0  0  0  0  0  0  0  0
    6.3358   26.2192  199.4512 N   0  0  0  0  0  0  0  0  0  0  0  0
    6.1168   25.0743  198.6480 C   0  0  0  0  0  0  0  0  0  0  0  0
    5.3942   25.1486  197.4750 C   0  0  0  0  0  0  0  0  0  0  0  0
    5.1558   24.0670  196.6517 C   0  0  0  0  0  0  0  0  0  0  0  0
    4.2402   24.1846  195.1652 Cl  0  0  0  0  0  0  0  0  0  0  0  0
    5.6562   22.8111  196.9908 C   0  0  0  0  0  0  0  0  0  0  0  0
    5.4320   21.7383  196.1922 F   0  0  0  0  0  0  0  0  0  0  0  0
    6.3780   22.7252  198.1589 C   0  0  0  0  0  0  0  0  0  0  0  0
    6.6127   23.8174  198.9788 C   0  0  0  0  0  0  0  0  0  0  0  0
 20 19  2  0
 20 21  1  0
 18 13  1  0
 18 17  2  0
 18 19  1  0
 17 16  1  0
 17 22  1  0
 22 21  2  0
 22 23  1  0
 15 14  1  0
 30 28  1  0
 30 31  2  0
 31 24  1  0
 25 24  2  0
 25 26  1  0
 13 12  2  0
 16 11  2  0
  8  7  1  0
  8  9  1  0
  9 10  1  0
  2  1  1  0
  2  3  1  0
  4  3  1  0
  4  5  1  0
  7  6  1  0
  1  6  1  0
  5  6  1  0
 28 26  2  0
 28 29  1  0
 26 27  1  0
 24 23  1  0
 12 11  1  0
 12 14  1  0
 11 10  1  0
M  CHG  1   6   1
M  END
$$$$
