
     RDKit          3D

 31 34  0  0  0  0  0  0  0  0999 V2000
   13.3912   28.8903  203.9547 C   0  0  0  0  0  0  0  0  0  0  0  0
   14.5686   28.0285  204.3492 C   0  0  0  0  0  0  0  0  0  0  0  0
   15.3374   27.6636  203.2279 O   0  0  0  0  0  0  0  0  0  0  0  0
   15.7285   28.8226  202.5246 C   0  0  0  0  0  0  0  0  0  0  0  0
   14.5320   29.6153  202.0457 C   0  0  0  0  0  0  0  0  0  0  0  0
   13.3466   28.9457  202.5106 N   0  0  0  0  0  4  0  0  0  0  0  0
   12.1305   29.5589  202.0246 C   0  0  0  0  0  0  0  0  0  0  0  0
   10.9035   29.0020  202.7164 C   0  0  0  0  0  0  0  0  0  0  0  0
    9.8279   30.0573  202.6588 C   0  0  0  0  0  0  0  0  0  0  0  0
    9.1786   30.1149  201.4307 O   0  0  0  0  0  0  0  0  0  0  0  0
    7.8768   29.7821  201.1512 C   0  0  0  0  0  0  0  0  0  0  0  0
    6.8995   30.7143  201.4871 C   0  0  0  0  0  0  0  0  0  0  0  0
    5.5621   30.4686  201.2450 C   0  0  0  0  0  0  0  0  0  0  0  0
    7.2432   31.9181  202.0763 O   0  0  0  0  0  0  0  0  0  0  0  0
    6.3190   32.9817  202.0818 C   0  0  0  0  0  0  0  0  0  0  0  0
    7.4967   28.5951  200.5663 C   0  0  0  0  0  0  0  0  0  0  0  0
    6.1677   28.3233  200.3137 C   0  0  0  0  0  0  0  0  0  0  0  0
    5.1865   29.2704  200.6564 C   0  0  0  0  0  0  0  0  0  0  0  0
    3.9125   28.9817  200.4105 N   0  0  0  0  0  0  0  0  0  0  0  0
    3.5350   27.8171  199.8475 C   0  0  0  0  0  0  0  0  0  0  0  0
    4.4944   26.9300  199.5305 N   0  0  0  0  0  0  0  0  0  0  0  0
    5.8045   27.1301  199.7390 C   0  0  0  0  0  0  0  0  0  0  0  0
    6.7837   26.1792  199.3942 N   0  0  0  0  0  0  0  0  0  0  0  0
    6.5580   25.0827  198.5279 C   0  0  0  0  0  0  0  0  0  0  0  0
    5.8517   25.2310  197.3520 C   0  0  0  0  0  0  0  0  0  0  0  0
    5.6079   24.1991  196.4688 C   0  0  0  0  0  0  0  0  0  0  0  0
    4.7133   24.4106  194.9799 Cl  0  0  0  0  0  0  0  0  0  0  0  0
    6.0852   22.9191  196.7457 C   0  0  0  0  0  0  0  0  0  0  0  0
    5.8553   21.8944  195.8879 F   0  0  0  0  0  0  0  0  0  0  0  0
    6.7905   22.7595  197.9161 C   0  0  0  0  0  0  0  0  0  0  0  0
    7.0308   23.8023  198.7964 C   0  0  0  0  0  0  0  0  0  0  0  0
 20 19  2  0
 20 21  1  0
 18 13  1  0
 18 17  2  0
 18 19  1  0
 17 16  1  0
 17 22  1  0
 22 21  2  0
 22 23  1  0
 15 14  1  0
 30 28  1  0
 30 31  2  0
 31 24  1  0
 25 24  2  0
 25 26  1  0
 13 12  2  0
 16 11  2  0
  8  7  1  0
  8  9  1  0
  9 10  1  0
  2  1  1  0
  2  3  1  0
  4  3  1  0
  4  5  1  0
  7  6  1  0
  1  6  1  0
  5  6  1  0
 28 26  2  0
 28 29  1  0
 26 27  1  0
 24 23  1  0
 12 11  1  0
 12 14  1  0
 11 10  1  0
M  CHG  1   6   1
M  END
$$$$
