
     RDKit          3D

 31 34  0  0  0  0  0  0  0  0999 V2000
   13.3545   28.1265  202.3183 C   0  0  0  0  0  0  0  0  0  0  0  0
   14.8585   27.9991  202.2371 C   0  0  0  0  0  0  0  0  0  0  0  0
   15.4900   28.6792  203.2955 O   0  0  0  0  0  0  0  0  0  0  0  0
   14.9751   28.2211  204.5268 C   0  0  0  0  0  0  0  0  0  0  0  0
   13.4841   28.4562  204.6304 C   0  0  0  0  0  0  0  0  0  0  0  0
   13.0446   29.0432  203.3925 N   0  0  0  0  0  4  0  0  0  0  0  0
   11.6458   29.4090  203.4123 C   0  0  0  0  0  0  0  0  0  0  0  0
   11.1898   29.9636  202.0785 C   0  0  0  0  0  0  0  0  0  0  0  0
    9.8973   29.2766  201.7158 C   0  0  0  0  0  0  0  0  0  0  0  0
    8.8272   30.1539  201.5797 O   0  0  0  0  0  0  0  0  0  0  0  0
    7.5228   29.8494  201.2813 C   0  0  0  0  0  0  0  0  0  0  0  0
    6.5565   30.7839  201.6418 C   0  0  0  0  0  0  0  0  0  0  0  0
    5.2174   30.5655  201.3835 C   0  0  0  0  0  0  0  0  0  0  0  0
    6.9133   31.9625  202.2727 O   0  0  0  0  0  0  0  0  0  0  0  0
    5.9410   32.9581  202.4938 C   0  0  0  0  0  0  0  0  0  0  0  0
    7.1298   28.6878  200.6552 C   0  0  0  0  0  0  0  0  0  0  0  0
    5.7987   28.4437  200.3855 C   0  0  0  0  0  0  0  0  0  0  0  0
    4.8288   29.3930  200.7532 C   0  0  0  0  0  0  0  0  0  0  0  0
    3.5525   29.1310  200.4900 N   0  0  0  0  0  0  0  0  0  0  0  0
    3.1623   27.9910  199.8865 C   0  0  0  0  0  0  0  0  0  0  0  0
    4.1111   27.1012  199.5462 N   0  0  0  0  0  0  0  0  0  0  0  0
    5.4225   27.2754  199.7694 C   0  0  0  0  0  0  0  0  0  0  0  0
    6.3904   26.3225  199.3994 N   0  0  0  0  0  0  0  0  0  0  0  0
    6.1039   25.1309  198.6909 C   0  0  0  0  0  0  0  0  0  0  0  0
    5.3087   25.1403  197.5633 C   0  0  0  0  0  0  0  0  0  0  0  0
    5.0026   24.0110  196.8318 C   0  0  0  0  0  0  0  0  0  0  0  0
    3.9954   24.0463  195.4013 Cl  0  0  0  0  0  0  0  0  0  0  0  0
    5.5057   22.7713  197.2229 C   0  0  0  0  0  0  0  0  0  0  0  0
    5.2154   21.6521  196.5145 F   0  0  0  0  0  0  0  0  0  0  0  0
    6.2995   22.7500  198.3464 C   0  0  0  0  0  0  0  0  0  0  0  0
    6.6018   23.8899  199.0741 C   0  0  0  0  0  0  0  0  0  0  0  0
 20 19  2  0
 20 21  1  0
 18 13  1  0
 18 17  2  0
 18 19  1  0
 17 16  1  0
 17 22  1  0
 22 21  2  0
 22 23  1  0
 15 14  1  0
 30 28  1  0
 30 31  2  0
 31 24  1  0
 25 24  2  0
 25 26  1  0
 13 12  2  0
 16 11  2  0
  8  7  1  0
  8  9  1  0
  9 10  1  0
  2  1  1  0
  2  3  1  0
  4  3  1  0
  4  5  1  0
  7  6  1  0
  1  6  1  0
  5  6  1  0
 28 26  2  0
 28 29  1  0
 26 27  1  0
 24 23  1  0
 12 11  1  0
 12 14  1  0
 11 10  1  0
M  CHG  1   6   1
M  END
$$$$
