
     RDKit          3D

 31 34  0  0  0  0  0  0  0  0999 V2000
   13.0816   27.1311  202.8440 C   0  0  0  0  0  0  0  0  0  0  0  0
   14.4422   26.7578  203.3865 C   0  0  0  0  0  0  0  0  0  0  0  0
   15.3415   27.8378  203.3068 O   0  0  0  0  0  0  0  0  0  0  0  0
   14.7905   28.9618  203.9580 C   0  0  0  0  0  0  0  0  0  0  0  0
   13.4804   29.3841  203.3300 C   0  0  0  0  0  0  0  0  0  0  0  0
   13.1803   28.4555  202.2728 N   0  0  0  0  0  4  0  0  0  0  0  0
   11.9952   28.8193  201.5283 C   0  0  0  0  0  0  0  0  0  0  0  0
   10.7298   28.5441  202.3142 C   0  0  0  0  0  0  0  0  0  0  0  0
    9.9911   29.8503  202.4631 C   0  0  0  0  0  0  0  0  0  0  0  0
    9.1972   30.1617  201.3649 O   0  0  0  0  0  0  0  0  0  0  0  0
    7.8815   29.8310  201.1576 C   0  0  0  0  0  0  0  0  0  0  0  0
    6.9281   30.7873  201.4947 C   0  0  0  0  0  0  0  0  0  0  0  0
    5.5793   30.5456  201.3224 C   0  0  0  0  0  0  0  0  0  0  0  0
    7.3081   32.0119  202.0148 O   0  0  0  0  0  0  0  0  0  0  0  0
    6.3254   32.9693  202.3358 C   0  0  0  0  0  0  0  0  0  0  0  0
    7.4655   28.6238  200.6427 C   0  0  0  0  0  0  0  0  0  0  0  0
    6.1242   28.3555  200.4606 C   0  0  0  0  0  0  0  0  0  0  0  0
    5.1675   29.3271  200.8040 C   0  0  0  0  0  0  0  0  0  0  0  0
    3.8815   29.0416  200.6270 N   0  0  0  0  0  0  0  0  0  0  0  0
    3.4692   27.8576  200.1328 C   0  0  0  0  0  0  0  0  0  0  0  0
    4.4058   26.9474  199.8134 N   0  0  0  0  0  0  0  0  0  0  0  0
    5.7256   27.1423  199.9554 C   0  0  0  0  0  0  0  0  0  0  0  0
    6.6802   26.1670  199.6102 N   0  0  0  0  0  0  0  0  0  0  0  0
    6.4266   25.0769  198.7434 C   0  0  0  0  0  0  0  0  0  0  0  0
    5.6046   25.2113  197.6434 C   0  0  0  0  0  0  0  0  0  0  0  0
    5.3282   24.1851  196.7631 C   0  0  0  0  0  0  0  0  0  0  0  0
    4.2859   24.3788  195.3710 Cl  0  0  0  0  0  0  0  0  0  0  0  0
    5.8920   22.9262  196.9632 C   0  0  0  0  0  0  0  0  0  0  0  0
    5.6316   21.9075  196.1069 F   0  0  0  0  0  0  0  0  0  0  0  0
    6.7131   22.7806  198.0575 C   0  0  0  0  0  0  0  0  0  0  0  0
    6.9852   23.8175  198.9355 C   0  0  0  0  0  0  0  0  0  0  0  0
 20 19  2  0
 20 21  1  0
 18 13  1  0
 18 17  2  0
 18 19  1  0
 17 16  1  0
 17 22  1  0
 22 21  2  0
 22 23  1  0
 15 14  1  0
 30 28  1  0
 30 31  2  0
 31 24  1  0
 25 24  2  0
 25 26  1  0
 13 12  2  0
 16 11  2  0
  8  7  1  0
  8  9  1  0
  9 10  1  0
  2  1  1  0
  2  3  1  0
  4  3  1  0
  4  5  1  0
  7  6  1  0
  1  6  1  0
  5  6  1  0
 28 26  2  0
 28 29  1  0
 26 27  1  0
 24 23  1  0
 12 11  1  0
 12 14  1  0
 11 10  1  0
M  CHG  1   6   1
M  END
$$$$
