
     RDKit          3D

 31 34  0  0  0  0  0  0  0  0999 V2000
   13.5342   29.1483  204.0697 C   0  0  0  0  0  0  0  0  0  0  0  0
   14.6390   28.1174  204.1041 C   0  0  0  0  0  0  0  0  0  0  0  0
   15.2419   27.9673  202.8409 O   0  0  0  0  0  0  0  0  0  0  0  0
   15.6893   29.2228  202.3777 C   0  0  0  0  0  0  0  0  0  0  0  0
   14.5490   30.2088  202.2485 C   0  0  0  0  0  0  0  0  0  0  0  0
   13.3484   29.5532  202.6942 N   0  0  0  0  0  4  0  0  0  0  0  0
   12.1675   30.3692  202.5195 C   0  0  0  0  0  0  0  0  0  0  0  0
   10.9026   29.6104  202.8640 C   0  0  0  0  0  0  0  0  0  0  0  0
   10.1781   29.3199  201.5738 C   0  0  0  0  0  0  0  0  0  0  0  0
    9.1141   30.1823  201.3340 O   0  0  0  0  0  0  0  0  0  0  0  0
    7.8058   29.8538  201.0818 C   0  0  0  0  0  0  0  0  0  0  0  0
    6.8367   30.7767  201.4642 C   0  0  0  0  0  0  0  0  0  0  0  0
    5.4936   30.5343  201.2524 C   0  0  0  0  0  0  0  0  0  0  0  0
    7.1948   31.9676  202.0708 O   0  0  0  0  0  0  0  0  0  0  0  0
    6.1991   32.9047  202.4113 C   0  0  0  0  0  0  0  0  0  0  0  0
    7.4114   28.6794  200.4810 C   0  0  0  0  0  0  0  0  0  0  0  0
    6.0763   28.4113  200.2577 C   0  0  0  0  0  0  0  0  0  0  0  0
    5.1037   29.3489  200.6474 C   0  0  0  0  0  0  0  0  0  0  0  0
    3.8239   29.0638  200.4290 N   0  0  0  0  0  0  0  0  0  0  0  0
    3.4327   27.9113  199.8504 C   0  0  0  0  0  0  0  0  0  0  0  0
    4.3842   27.0331  199.4884 N   0  0  0  0  0  0  0  0  0  0  0  0
    5.6992   27.2305  199.6665 C   0  0  0  0  0  0  0  0  0  0  0  0
    6.6698   26.2891  199.2747 N   0  0  0  0  0  0  0  0  0  0  0  0
    6.4189   25.2038  198.4012 C   0  0  0  0  0  0  0  0  0  0  0  0
    5.5510   25.3264  197.3356 C   0  0  0  0  0  0  0  0  0  0  0  0
    5.2747   24.3044  196.4505 C   0  0  0  0  0  0  0  0  0  0  0  0
    4.1737   24.4831  195.1023 Cl  0  0  0  0  0  0  0  0  0  0  0  0
    5.8868   23.0622  196.6093 C   0  0  0  0  0  0  0  0  0  0  0  0
    5.6271   22.0478  195.7477 F   0  0  0  0  0  0  0  0  0  0  0  0
    6.7538   22.9284  197.6691 C   0  0  0  0  0  0  0  0  0  0  0  0
    7.0254   23.9611  198.5522 C   0  0  0  0  0  0  0  0  0  0  0  0
 20 19  2  0
 20 21  1  0
 18 13  1  0
 18 17  2  0
 18 19  1  0
 17 16  1  0
 17 22  1  0
 22 21  2  0
 22 23  1  0
 15 14  1  0
 30 28  1  0
 30 31  2  0
 31 24  1  0
 25 24  2  0
 25 26  1  0
 13 12  2  0
 16 11  2  0
  8  7  1  0
  8  9  1  0
  9 10  1  0
  2  1  1  0
  2  3  1  0
  4  3  1  0
  4  5  1  0
  7  6  1  0
  1  6  1  0
  5  6  1  0
 28 26  2  0
 28 29  1  0
 26 27  1  0
 24 23  1  0
 12 11  1  0
 12 14  1  0
 11 10  1  0
M  CHG  1   6   1
M  END
$$$$
