
     RDKit          3D

 31 34  0  0  0  0  0  0  0  0999 V2000
   13.8817   31.0774  203.7749 C   0  0  0  0  0  0  0  0  0  0  0  0
   15.3585   30.9045  204.0470 C   0  0  0  0  0  0  0  0  0  0  0  0
   15.8624   29.7436  203.4307 O   0  0  0  0  0  0  0  0  0  0  0  0
   15.5677   29.7739  202.0511 C   0  0  0  0  0  0  0  0  0  0  0  0
   14.0770   29.8391  201.8002 C   0  0  0  0  0  0  0  0  0  0  0  0
   13.4184   29.8985  203.0779 N   0  0  0  0  0  4  0  0  0  0  0  0
   11.9772   29.8605  202.9668 C   0  0  0  0  0  0  0  0  0  0  0  0
   11.5240   29.8419  201.5215 C   0  0  0  0  0  0  0  0  0  0  0  0
   10.1864   29.1475  201.4708 C   0  0  0  0  0  0  0  0  0  0  0  0
    9.1096   30.0170  201.6039 O   0  0  0  0  0  0  0  0  0  0  0  0
    7.7946   29.7814  201.2902 C   0  0  0  0  0  0  0  0  0  0  0  0
    6.8855   30.7973  201.5700 C   0  0  0  0  0  0  0  0  0  0  0  0
    5.5408   30.6522  201.2902 C   0  0  0  0  0  0  0  0  0  0  0  0
    7.3066   31.9859  202.1396 O   0  0  0  0  0  0  0  0  0  0  0  0
    6.3720   33.0107  202.3881 C   0  0  0  0  0  0  0  0  0  0  0  0
    7.3384   28.6125  200.7232 C   0  0  0  0  0  0  0  0  0  0  0  0
    6.0002   28.4405  200.4338 C   0  0  0  0  0  0  0  0  0  0  0  0
    5.0884   29.4719  200.7199 C   0  0  0  0  0  0  0  0  0  0  0  0
    3.8035   29.2788  200.4395 N   0  0  0  0  0  0  0  0  0  0  0  0
    3.3510   28.1327  199.8939 C   0  0  0  0  0  0  0  0  0  0  0  0
    4.2452   27.1636  199.6313 N   0  0  0  0  0  0  0  0  0  0  0  0
    5.5601   27.2644  199.8778 C   0  0  0  0  0  0  0  0  0  0  0  0
    6.4698   26.2294  199.5896 N   0  0  0  0  0  0  0  0  0  0  0  0
    6.1561   25.0868  198.8152 C   0  0  0  0  0  0  0  0  0  0  0  0
    5.3761   25.1810  197.6810 C   0  0  0  0  0  0  0  0  0  0  0  0
    5.0449   24.1023  196.8866 C   0  0  0  0  0  0  0  0  0  0  0  0
    4.0576   24.2451  195.4489 Cl  0  0  0  0  0  0  0  0  0  0  0  0
    5.5046   22.8284  197.2164 C   0  0  0  0  0  0  0  0  0  0  0  0
    5.1892   21.7581  196.4459 F   0  0  0  0  0  0  0  0  0  0  0  0
    6.2829   22.7226  198.3459 C   0  0  0  0  0  0  0  0  0  0  0  0
    6.6107   23.8121  199.1369 C   0  0  0  0  0  0  0  0  0  0  0  0
 20 19  2  0
 20 21  1  0
 18 13  1  0
 18 17  2  0
 18 19  1  0
 17 16  1  0
 17 22  1  0
 22 21  2  0
 22 23  1  0
 15 14  1  0
 30 28  1  0
 30 31  2  0
 31 24  1  0
 25 24  2  0
 25 26  1  0
 13 12  2  0
 16 11  2  0
  8  7  1  0
  8  9  1  0
  9 10  1  0
  2  1  1  0
  2  3  1  0
  4  3  1  0
  4  5  1  0
  7  6  1  0
  1  6  1  0
  5  6  1  0
 28 26  2  0
 28 29  1  0
 26 27  1  0
 24 23  1  0
 12 11  1  0
 12 14  1  0
 11 10  1  0
M  CHG  1   6   1
M  END
$$$$
