
     RDKit          3D

 31 34  0  0  0  0  0  0  0  0999 V2000
  -14.9745   12.0889  159.9280 C   0  0  0  0  0  0  0  0  0  0  0  0
  -14.0334   13.1012  160.5400 C   0  0  0  0  0  0  0  0  0  0  0  0
  -12.6978   12.8481  160.1748 O   0  0  0  0  0  0  0  0  0  0  0  0
  -12.5933   12.7950  158.7686 C   0  0  0  0  0  0  0  0  0  0  0  0
  -13.4629   11.7030  158.1852 C   0  0  0  0  0  0  0  0  0  0  0  0
  -14.1739   11.0806  159.2701 N   0  0  0  0  0  4  0  0  0  0  0  0
  -14.9646    9.9474  158.8438 C   0  0  0  0  0  0  0  0  0  0  0  0
  -15.3386    9.0521  160.0070 C   0  0  0  0  0  0  0  0  0  0  0  0
  -14.5317    7.7840  159.8855 C   0  0  0  0  0  0  0  0  0  0  0  0
  -15.3018    6.6697  159.5714 O   0  0  0  0  0  0  0  0  0  0  0  0
  -14.8915    5.3637  159.4756 C   0  0  0  0  0  0  0  0  0  0  0  0
  -15.8211    4.3825  159.8069 C   0  0  0  0  0  0  0  0  0  0  0  0
  -15.5002    3.0407  159.7419 C   0  0  0  0  0  0  0  0  0  0  0  0
  -17.0982    4.7267  160.2131 O   0  0  0  0  0  0  0  0  0  0  0  0
  -17.8917    3.7835  160.8960 C   0  0  0  0  0  0  0  0  0  0  0  0
  -13.6302    4.9830  159.0757 C   0  0  0  0  0  0  0  0  0  0  0  0
  -13.2825    3.6496  159.0023 C   0  0  0  0  0  0  0  0  0  0  0  0
  -14.2277    2.6646  159.3391 C   0  0  0  0  0  0  0  0  0  0  0  0
  -13.8660    1.3875  159.2682 N   0  0  0  0  0  0  0  0  0  0  0  0
  -12.6297    1.0104  158.8871 C   0  0  0  0  0  0  0  0  0  0  0  0
  -11.7463    1.9736  158.5712 N   0  0  0  0  0  0  0  0  0  0  0  0
  -12.0169    3.2871  158.6114 C   0  0  0  0  0  0  0  0  0  0  0  0
  -11.0677    4.2701  158.2732 N   0  0  0  0  0  0  0  0  0  0  0  0
   -9.7835    3.9892  157.7480 C   0  0  0  0  0  0  0  0  0  0  0  0
   -9.5924    2.9889  156.8170 C   0  0  0  0  0  0  0  0  0  0  0  0
   -8.3654    2.6769  156.2681 C   0  0  0  0  0  0  0  0  0  0  0  0
   -8.1462    1.4067  155.0847 Cl  0  0  0  0  0  0  0  0  0  0  0  0
   -7.2304    3.3896  156.6512 C   0  0  0  0  0  0  0  0  0  0  0  0
   -6.0175    3.0965  156.1205 F   0  0  0  0  0  0  0  0  0  0  0  0
   -7.4093    4.3892  157.5795 C   0  0  0  0  0  0  0  0  0  0  0  0
   -8.6459    4.6955  158.1246 C   0  0  0  0  0  0  0  0  0  0  0  0
 20 19  2  0
 20 21  1  0
 18 13  1  0
 18 17  2  0
 18 19  1  0
 17 16  1  0
 17 22  1  0
 22 21  2  0
 22 23  1  0
 15 14  1  0
 30 28  1  0
 30 31  2  0
 31 24  1  0
 25 24  2  0
 25 26  1  0
 13 12  2  0
 16 11  2  0
  8  7  1  0
  8  9  1  0
  9 10  1  0
  2  1  1  0
  2  3  1  0
  4  3  1  0
  4  5  1  0
  7  6  1  0
  1  6  1  0
  5  6  1  0
 28 26  2  0
 28 29  1  0
 26 27  1  0
 24 23  1  0
 12 11  1  0
 12 14  1  0
 11 10  1  0
M  CHG  1   6   1
M  END
$$$$
