
     RDKit          3D

 31 34  0  0  0  0  0  0  0  0999 V2000
   13.0627   27.6517  203.1853 C   0  0  0  0  0  0  0  0  0  0  0  0
   14.3455   27.0136  203.6667 C   0  0  0  0  0  0  0  0  0  0  0  0
   15.4474   27.4292  202.8955 O   0  0  0  0  0  0  0  0  0  0  0  0
   15.5154   28.8385  202.8877 C   0  0  0  0  0  0  0  0  0  0  0  0
   14.2634   29.4545  202.3024 C   0  0  0  0  0  0  0  0  0  0  0  0
   13.3590   28.3846  201.9748 N   0  0  0  0  0  4  0  0  0  0  0  0
   12.1617   28.8480  201.3095 C   0  0  0  0  0  0  0  0  0  0  0  0
   11.0808   29.2326  202.2986 C   0  0  0  0  0  0  0  0  0  0  0  0
    9.9763   29.9108  201.5277 C   0  0  0  0  0  0  0  0  0  0  0  0
    8.7581   29.9123  202.1980 O   0  0  0  0  0  0  0  0  0  0  0  0
    7.5095   29.6909  201.6736 C   0  0  0  0  0  0  0  0  0  0  0  0
    6.5628   30.6961  201.8477 C   0  0  0  0  0  0  0  0  0  0  0  0
    5.2790   30.5638  201.3558 C   0  0  0  0  0  0  0  0  0  0  0  0
    6.8838   31.8606  202.5225 O   0  0  0  0  0  0  0  0  0  0  0  0
    5.8672   32.6048  203.1535 C   0  0  0  0  0  0  0  0  0  0  0  0
    7.1532   28.5460  200.9969 C   0  0  0  0  0  0  0  0  0  0  0  0
    5.8775   28.3872  200.4954 C   0  0  0  0  0  0  0  0  0  0  0  0
    4.9270   29.4076  200.6759 C   0  0  0  0  0  0  0  0  0  0  0  0
    3.7027   29.2274  200.1908 N   0  0  0  0  0  0  0  0  0  0  0  0
    3.3467   28.1043  199.5365 C   0  0  0  0  0  0  0  0  0  0  0  0
    4.2757   27.1453  199.3789 N   0  0  0  0  0  0  0  0  0  0  0  0
    5.5355   27.2347  199.8316 C   0  0  0  0  0  0  0  0  0  0  0  0
    6.4842   26.2108  199.6486 N   0  0  0  0  0  0  0  0  0  0  0  0
    6.3807   25.1961  198.6669 C   0  0  0  0  0  0  0  0  0  0  0  0
    5.5989   25.3631  197.5424 C   0  0  0  0  0  0  0  0  0  0  0  0
    5.4670   24.4110  196.5523 C   0  0  0  0  0  0  0  0  0  0  0  0
    4.4731   24.6454  195.1312 Cl  0  0  0  0  0  0  0  0  0  0  0  0
    6.1456   23.1981  196.6586 C   0  0  0  0  0  0  0  0  0  0  0  0
    6.0277   22.2525  195.6940 F   0  0  0  0  0  0  0  0  0  0  0  0
    6.9279   23.0206  197.7764 C   0  0  0  0  0  0  0  0  0  0  0  0
    7.0546   23.9832  198.7651 C   0  0  0  0  0  0  0  0  0  0  0  0
 20 19  2  0
 20 21  1  0
 18 13  1  0
 18 17  2  0
 18 19  1  0
 17 16  1  0
 17 22  1  0
 22 21  2  0
 22 23  1  0
 15 14  1  0
 30 28  1  0
 30 31  2  0
 31 24  1  0
 25 24  2  0
 25 26  1  0
 13 12  2  0
 16 11  2  0
  8  7  1  0
  8  9  1  0
  9 10  1  0
  2  1  1  0
  2  3  1  0
  4  3  1  0
  4  5  1  0
  7  6  1  0
  1  6  1  0
  5  6  1  0
 28 26  2  0
 28 29  1  0
 26 27  1  0
 24 23  1  0
 12 11  1  0
 12 14  1  0
 11 10  1  0
M  CHG  1   6   1
M  END
$$$$
