
     RDKit          3D

 31 34  0  0  0  0  0  0  0  0999 V2000
  -15.9476   11.6087  159.5972 C   0  0  0  0  0  0  0  0  0  0  0  0
  -16.3277   12.9654  160.1443 C   0  0  0  0  0  0  0  0  0  0  0  0
  -17.0768   12.8501  161.3305 O   0  0  0  0  0  0  0  0  0  0  0  0
  -16.3642   12.0709  162.2666 C   0  0  0  0  0  0  0  0  0  0  0  0
  -16.0874   10.6800  161.7394 C   0  0  0  0  0  0  0  0  0  0  0  0
  -16.6093   10.6054  160.4008 N   0  0  0  0  0  4  0  0  0  0  0  0
  -16.4934    9.2827  159.8280 C   0  0  0  0  0  0  0  0  0  0  0  0
  -15.0719    8.7635  159.8926 C   0  0  0  0  0  0  0  0  0  0  0  0
  -15.0869    7.4895  160.6994 C   0  0  0  0  0  0  0  0  0  0  0  0
  -15.7051    6.4305  160.0441 O   0  0  0  0  0  0  0  0  0  0  0  0
  -15.2049    5.1720  159.8217 C   0  0  0  0  0  0  0  0  0  0  0  0
  -16.0625    4.1004  160.0525 C   0  0  0  0  0  0  0  0  0  0  0  0
  -15.6489    2.7972  159.8571 C   0  0  0  0  0  0  0  0  0  0  0  0
  -17.3588    4.3131  160.4870 O   0  0  0  0  0  0  0  0  0  0  0  0
  -18.2109    3.2125  160.7065 C   0  0  0  0  0  0  0  0  0  0  0  0
  -13.9217    4.9214  159.3899 C   0  0  0  0  0  0  0  0  0  0  0  0
  -13.4821    3.6293  159.1871 C   0  0  0  0  0  0  0  0  0  0  0  0
  -14.3548    2.5523  159.4228 C   0  0  0  0  0  0  0  0  0  0  0  0
  -13.9052    1.3167  159.2281 N   0  0  0  0  0  0  0  0  0  0  0  0
  -12.6471    1.0662  158.8152 C   0  0  0  0  0  0  0  0  0  0  0  0
  -11.8344    2.1151  158.5979 N   0  0  0  0  0  0  0  0  0  0  0  0
  -12.1959    3.3961  158.7660 C   0  0  0  0  0  0  0  0  0  0  0  0
  -11.3190    4.4715  158.5286 N   0  0  0  0  0  0  0  0  0  0  0  0
  -10.0549    4.3448  157.9043 C   0  0  0  0  0  0  0  0  0  0  0  0
   -9.8244    3.3860  156.9392 C   0  0  0  0  0  0  0  0  0  0  0  0
   -8.6152    3.2223  156.2947 C   0  0  0  0  0  0  0  0  0  0  0  0
   -8.3459    2.0022  155.0696 Cl  0  0  0  0  0  0  0  0  0  0  0  0
   -7.5410    4.0528  156.6097 C   0  0  0  0  0  0  0  0  0  0  0  0
   -6.3465    3.9060  155.9849 F   0  0  0  0  0  0  0  0  0  0  0  0
   -7.7594    5.0123  157.5712 C   0  0  0  0  0  0  0  0  0  0  0  0
   -8.9778    5.1693  158.2124 C   0  0  0  0  0  0  0  0  0  0  0  0
 20 19  2  0
 20 21  1  0
 18 13  1  0
 18 17  2  0
 18 19  1  0
 17 16  1  0
 17 22  1  0
 22 21  2  0
 22 23  1  0
 15 14  1  0
 30 28  1  0
 30 31  2  0
 31 24  1  0
 25 24  2  0
 25 26  1  0
 13 12  2  0
 16 11  2  0
  8  7  1  0
  8  9  1  0
  9 10  1  0
  2  1  1  0
  2  3  1  0
  4  3  1  0
  4  5  1  0
  7  6  1  0
  1  6  1  0
  5  6  1  0
 28 26  2  0
 28 29  1  0
 26 27  1  0
 24 23  1  0
 12 11  1  0
 12 14  1  0
 11 10  1  0
M  CHG  1   6   1
M  END
$$$$
