
     RDKit          3D

 31 34  0  0  0  0  0  0  0  0999 V2000
   14.4206   30.7993  203.5979 C   0  0  0  0  0  0  0  0  0  0  0  0
   15.7361   30.1476  203.9576 C   0  0  0  0  0  0  0  0  0  0  0  0
   15.8683   28.8855  203.3484 O   0  0  0  0  0  0  0  0  0  0  0  0
   15.6918   29.0119  201.9541 C   0  0  0  0  0  0  0  0  0  0  0  0
   14.3261   29.5664  201.6124 C   0  0  0  0  0  0  0  0  0  0  0  0
   13.6412   29.8401  202.8477 N   0  0  0  0  0  4  0  0  0  0  0  0
   12.2788   30.2809  202.6463 C   0  0  0  0  0  0  0  0  0  0  0  0
   11.4786   29.2839  201.8337 C   0  0  0  0  0  0  0  0  0  0  0  0
   10.0719   29.2760  202.3768 C   0  0  0  0  0  0  0  0  0  0  0  0
    9.1800   30.0125  201.6051 O   0  0  0  0  0  0  0  0  0  0  0  0
    7.8729   29.7122  201.3140 C   0  0  0  0  0  0  0  0  0  0  0  0
    6.9134   30.6574  201.6645 C   0  0  0  0  0  0  0  0  0  0  0  0
    5.5723   30.4441  201.4123 C   0  0  0  0  0  0  0  0  0  0  0  0
    7.2791   31.8420  202.2789 O   0  0  0  0  0  0  0  0  0  0  0  0
    6.2932   32.7977  202.5953 C   0  0  0  0  0  0  0  0  0  0  0  0
    7.4711   28.5450  200.7041 C   0  0  0  0  0  0  0  0  0  0  0  0
    6.1379   28.3057  200.4409 C   0  0  0  0  0  0  0  0  0  0  0  0
    5.1748   29.2658  200.7985 C   0  0  0  0  0  0  0  0  0  0  0  0
    3.8963   29.0083  200.5418 N   0  0  0  0  0  0  0  0  0  0  0  0
    3.4974   27.8630  199.9543 C   0  0  0  0  0  0  0  0  0  0  0  0
    4.4398   26.9628  199.6235 N   0  0  0  0  0  0  0  0  0  0  0  0
    5.7528   27.1318  199.8412 C   0  0  0  0  0  0  0  0  0  0  0  0
    6.7139   26.1680  199.4814 N   0  0  0  0  0  0  0  0  0  0  0  0
    6.4599   25.0738  198.6199 C   0  0  0  0  0  0  0  0  0  0  0  0
    5.7927   25.2422  197.4240 C   0  0  0  0  0  0  0  0  0  0  0  0
    5.5242   24.2132  196.5446 C   0  0  0  0  0  0  0  0  0  0  0  0
    4.6802   24.4500  195.0300 Cl  0  0  0  0  0  0  0  0  0  0  0  0
    5.9332   22.9154  196.8466 C   0  0  0  0  0  0  0  0  0  0  0  0
    5.6782   21.8933  195.9928 F   0  0  0  0  0  0  0  0  0  0  0  0
    6.5989   22.7357  198.0371 C   0  0  0  0  0  0  0  0  0  0  0  0
    6.8646   23.7757  198.9135 C   0  0  0  0  0  0  0  0  0  0  0  0
 20 19  2  0
 20 21  1  0
 18 13  1  0
 18 17  2  0
 18 19  1  0
 17 16  1  0
 17 22  1  0
 22 21  2  0
 22 23  1  0
 15 14  1  0
 30 28  1  0
 30 31  2  0
 31 24  1  0
 25 24  2  0
 25 26  1  0
 13 12  2  0
 16 11  2  0
  8  7  1  0
  8  9  1  0
  9 10  1  0
  2  1  1  0
  2  3  1  0
  4  3  1  0
  4  5  1  0
  7  6  1  0
  1  6  1  0
  5  6  1  0
 28 26  2  0
 28 29  1  0
 26 27  1  0
 24 23  1  0
 12 11  1  0
 12 14  1  0
 11 10  1  0
M  CHG  1   6   1
M  END
$$$$
