
     RDKit          3D

 31 34  0  0  0  0  0  0  0  0999 V2000
   43.6749  -13.3867   -0.3471 C   0  0  0  0  0  0  0  0  0  0  0  0
   42.9711  -14.1005    0.7694 C   0  0  0  0  0  0  0  0  0  0  0  0
   43.6802  -15.2039    1.1770 O   0  0  0  0  0  0  0  0  0  0  0  0
   44.5052  -15.6454    0.1727 C   0  0  0  0  0  0  0  0  0  0  0  0
   43.8863  -15.5648   -1.2062 C   0  0  0  0  0  0  0  0  0  0  0  0
   43.6921  -14.1889   -1.5770 N   0  0  0  0  0  4  0  0  0  0  0  0
   42.4316  -13.9514   -2.2331 C   0  0  0  0  0  0  0  0  0  0  0  0
   42.3655  -14.4193   -3.6506 C   0  0  0  0  0  0  0  0  0  0  0  0
   40.9618  -14.7544   -4.1106 C   0  0  0  0  0  0  0  0  0  0  0  0
   40.3703  -13.6630   -4.7883 O   0  0  0  0  0  0  0  0  0  0  0  0
   39.6556  -13.8102   -5.9447 C   0  0  0  0  0  0  0  0  0  0  0  0
   39.5422  -12.7852   -6.8471 C   0  0  0  0  0  0  0  0  0  0  0  0
   38.8357  -12.9063   -8.0095 C   0  0  0  0  0  0  0  0  0  0  0  0
   40.1855  -11.6006   -6.5255 O   0  0  0  0  0  0  0  0  0  0  0  0
   40.1707  -10.5397   -7.4607 C   0  0  0  0  0  0  0  0  0  0  0  0
   39.0223  -15.0246   -6.2281 C   0  0  0  0  0  0  0  0  0  0  0  0
   38.3043  -15.1646   -7.3969 C   0  0  0  0  0  0  0  0  0  0  0  0
   38.2114  -14.0919   -8.2964 C   0  0  0  0  0  0  0  0  0  0  0  0
   37.5004  -14.2754   -9.4231 N   0  0  0  0  0  0  0  0  0  0  0  0
   36.8874  -15.4348   -9.7070 C   0  0  0  0  0  0  0  0  0  0  0  0
   36.9944  -16.4385   -8.8285 N   0  0  0  0  0  0  0  0  0  0  0  0
   37.6800  -16.3545   -7.6782 C   0  0  0  0  0  0  0  0  0  0  0  0
   37.7331  -17.4307   -6.7747 N   0  0  0  0  0  0  0  0  0  0  0  0
   37.1318  -18.6712   -7.1527 C   0  0  0  0  0  0  0  0  0  0  0  0
   37.3531  -19.1762   -8.3993 C   0  0  0  0  0  0  0  0  0  0  0  0
   36.7545  -20.3811   -8.8018 C   0  0  0  0  0  0  0  0  0  0  0  0
   37.0449  -21.0256  -10.4162 Cl  0  0  0  0  0  0  0  0  0  0  0  0
   35.9320  -21.0779   -7.9465 C   0  0  0  0  0  0  0  0  0  0  0  0
   35.3468  -22.2297   -8.3038 F   0  0  0  0  0  0  0  0  0  0  0  0
   35.7168  -20.5479   -6.6744 C   0  0  0  0  0  0  0  0  0  0  0  0
   36.3074  -19.3656   -6.2875 C   0  0  0  0  0  0  0  0  0  0  0  0
 20 19  2  0
 20 21  1  0
 18 13  1  0
 18 17  2  0
 18 19  1  0
 17 16  1  0
 17 22  1  0
 22 21  2  0
 22 23  1  0
 15 14  1  0
 30 28  1  0
 30 31  2  0
 31 24  1  0
 25 24  2  0
 25 26  1  0
 13 12  2  0
 16 11  2  0
  8  7  1  0
  8  9  1  0
  9 10  1  0
  2  1  1  0
  2  3  1  0
  4  3  1  0
  4  5  1  0
  7  6  1  0
  1  6  1  0
  5  6  1  0
 28 26  2  0
 28 29  1  0
 26 27  1  0
 24 23  1  0
 12 11  1  0
 12 14  1  0
 11 10  1  0
M  CHG  1   6   1
M  END
$$$$
