
     RDKit          3D

 31 34  0  0  0  0  0  0  0  0999 V2000
   40.1913  -17.4017   -1.1403 C   0  0  0  0  0  0  0  0  0  0  0  0
   39.5091  -17.2362    0.1859 C   0  0  0  0  0  0  0  0  0  0  0  0
   39.8538  -18.2466    1.0500 O   0  0  0  0  0  0  0  0  0  0  0  0
   40.2666  -19.3561    0.3552 C   0  0  0  0  0  0  0  0  0  0  0  0
   39.4643  -19.6245   -0.8999 C   0  0  0  0  0  0  0  0  0  0  0  0
   39.6942  -18.5802   -1.8617 N   0  0  0  0  0  4  0  0  0  0  0  0
   38.4948  -18.1624   -2.5420 C   0  0  0  0  0  0  0  0  0  0  0  0
   38.7252  -17.4082   -3.8111 C   0  0  0  0  0  0  0  0  0  0  0  0
   38.7291  -18.2882   -5.0438 C   0  0  0  0  0  0  0  0  0  0  0  0
   37.6101  -18.0225   -5.8669 O   0  0  0  0  0  0  0  0  0  0  0  0
   37.5871  -17.0020   -6.7768 C   0  0  0  0  0  0  0  0  0  0  0  0
   36.7867  -17.0564   -7.8877 C   0  0  0  0  0  0  0  0  0  0  0  0
   36.7442  -16.0509   -8.8109 C   0  0  0  0  0  0  0  0  0  0  0  0
   36.0088  -18.1935   -8.0377 O   0  0  0  0  0  0  0  0  0  0  0  0
   35.3110  -18.3883   -9.2524 C   0  0  0  0  0  0  0  0  0  0  0  0
   38.3897  -15.8728   -6.5847 C   0  0  0  0  0  0  0  0  0  0  0  0
   38.3598  -14.8481   -7.5069 C   0  0  0  0  0  0  0  0  0  0  0  0
   37.5268  -14.9404   -8.6319 C   0  0  0  0  0  0  0  0  0  0  0  0
   37.5312  -13.9164   -9.5037 N   0  0  0  0  0  0  0  0  0  0  0  0
   38.2966  -12.8277   -9.3320 C   0  0  0  0  0  0  0  0  0  0  0  0
   39.0807  -12.7703   -8.2491 N   0  0  0  0  0  0  0  0  0  0  0  0
   39.1471  -13.7386   -7.3227 C   0  0  0  0  0  0  0  0  0  0  0  0
   40.0134  -13.6412   -6.2195 N   0  0  0  0  0  0  0  0  0  0  0  0
   40.5956  -12.3711   -5.9172 C   0  0  0  0  0  0  0  0  0  0  0  0
   40.4599  -11.3398   -6.7980 C   0  0  0  0  0  0  0  0  0  0  0  0
   41.0428  -10.0897   -6.5342 C   0  0  0  0  0  0  0  0  0  0  0  0
   40.8635   -8.7624   -7.6797 Cl  0  0  0  0  0  0  0  0  0  0  0  0
   41.7632   -9.8790   -5.3809 C   0  0  0  0  0  0  0  0  0  0  0  0
   42.3311   -8.6970   -5.1033 F   0  0  0  0  0  0  0  0  0  0  0  0
   41.8917  -10.9444   -4.4899 C   0  0  0  0  0  0  0  0  0  0  0  0
   41.3173  -12.1672   -4.7561 C   0  0  0  0  0  0  0  0  0  0  0  0
 20 19  2  0
 20 21  1  0
 18 13  1  0
 18 17  2  0
 18 19  1  0
 17 16  1  0
 17 22  1  0
 22 21  2  0
 22 23  1  0
 15 14  1  0
 30 28  1  0
 30 31  2  0
 31 24  1  0
 25 24  2  0
 25 26  1  0
 13 12  2  0
 16 11  2  0
  8  7  1  0
  8  9  1  0
  9 10  1  0
  2  1  1  0
  2  3  1  0
  4  3  1  0
  4  5  1  0
  7  6  1  0
  1  6  1  0
  5  6  1  0
 28 26  2  0
 28 29  1  0
 26 27  1  0
 24 23  1  0
 12 11  1  0
 12 14  1  0
 11 10  1  0
M  CHG  1   6   1
M  END
$$$$
