
     RDKit          3D

 31 34  0  0  0  0  0  0  0  0999 V2000
   43.5857  -12.7253   -1.0618 C   0  0  0  0  0  0  0  0  0  0  0  0
   42.7422  -11.6972   -0.3667 C   0  0  0  0  0  0  0  0  0  0  0  0
   42.3509  -12.1344    0.8751 O   0  0  0  0  0  0  0  0  0  0  0  0
   42.3706  -13.5057    0.9322 C   0  0  0  0  0  0  0  0  0  0  0  0
   41.8856  -14.1771   -0.3347 C   0  0  0  0  0  0  0  0  0  0  0  0
   42.8063  -13.9203   -1.4093 N   0  0  0  0  0  4  0  0  0  0  0  0
   42.1514  -13.6274   -2.6588 C   0  0  0  0  0  0  0  0  0  0  0  0
   41.9719  -14.8038   -3.5624 C   0  0  0  0  0  0  0  0  0  0  0  0
   40.6170  -14.8442   -4.2383 C   0  0  0  0  0  0  0  0  0  0  0  0
   40.5459  -13.9128   -5.3003 O   0  0  0  0  0  0  0  0  0  0  0  0
   39.6779  -14.0506   -6.3478 C   0  0  0  0  0  0  0  0  0  0  0  0
   39.4467  -13.0204   -7.2213 C   0  0  0  0  0  0  0  0  0  0  0  0
   38.5860  -13.1320   -8.2758 C   0  0  0  0  0  0  0  0  0  0  0  0
   40.1347  -11.8406   -6.9862 O   0  0  0  0  0  0  0  0  0  0  0  0
   40.0955  -10.8204   -7.9650 C   0  0  0  0  0  0  0  0  0  0  0  0
   39.0049  -15.2605   -6.5466 C   0  0  0  0  0  0  0  0  0  0  0  0
   38.1318  -15.3909   -7.6059 C   0  0  0  0  0  0  0  0  0  0  0  0
   37.9217  -14.3132   -8.4791 C   0  0  0  0  0  0  0  0  0  0  0  0
   37.0612  -14.4874   -9.4978 N   0  0  0  0  0  0  0  0  0  0  0  0
   36.4085  -15.6423   -9.6996 C   0  0  0  0  0  0  0  0  0  0  0  0
   36.6302  -16.6511   -8.8488 N   0  0  0  0  0  0  0  0  0  0  0  0
   37.4682  -16.5764   -7.8037 C   0  0  0  0  0  0  0  0  0  0  0  0
   37.6395  -17.6575   -6.9210 N   0  0  0  0  0  0  0  0  0  0  0  0
   37.1184  -18.9349   -7.2951 C   0  0  0  0  0  0  0  0  0  0  0  0
   37.3048  -19.3942   -8.5648 C   0  0  0  0  0  0  0  0  0  0  0  0
   36.7820  -20.6354   -8.9626 C   0  0  0  0  0  0  0  0  0  0  0  0
   37.0266  -21.2205  -10.6070 Cl  0  0  0  0  0  0  0  0  0  0  0  0
   36.0707  -21.4147   -8.0792 C   0  0  0  0  0  0  0  0  0  0  0  0
   35.5598  -22.6028   -8.4313 F   0  0  0  0  0  0  0  0  0  0  0  0
   35.8899  -20.9304   -6.7838 C   0  0  0  0  0  0  0  0  0  0  0  0
   36.4055  -19.7121   -6.4017 C   0  0  0  0  0  0  0  0  0  0  0  0
 20 19  2  0
 20 21  1  0
 18 13  1  0
 18 17  2  0
 18 19  1  0
 17 16  1  0
 17 22  1  0
 22 21  2  0
 22 23  1  0
 15 14  1  0
 30 28  1  0
 30 31  2  0
 31 24  1  0
 25 24  2  0
 25 26  1  0
 13 12  2  0
 16 11  2  0
  8  7  1  0
  8  9  1  0
  9 10  1  0
  2  1  1  0
  2  3  1  0
  4  3  1  0
  4  5  1  0
  7  6  1  0
  1  6  1  0
  5  6  1  0
 28 26  2  0
 28 29  1  0
 26 27  1  0
 24 23  1  0
 12 11  1  0
 12 14  1  0
 11 10  1  0
M  CHG  1   6   1
M  END
$$$$
