
     RDKit          3D

 31 34  0  0  0  0  0  0  0  0999 V2000
   43.6146  -14.8149   -1.0419 C   0  0  0  0  0  0  0  0  0  0  0  0
   43.5540  -14.3875    0.3952 C   0  0  0  0  0  0  0  0  0  0  0  0
   43.7935  -15.4456    1.2375 O   0  0  0  0  0  0  0  0  0  0  0  0
   43.5052  -16.6338    0.6137 C   0  0  0  0  0  0  0  0  0  0  0  0
   42.2722  -16.5805   -0.2626 C   0  0  0  0  0  0  0  0  0  0  0  0
   42.5064  -15.7145   -1.3867 N   0  0  0  0  0  4  0  0  0  0  0  0
   41.3806  -14.8701   -1.6957 C   0  0  0  0  0  0  0  0  0  0  0  0
   41.4752  -14.1544   -3.0039 C   0  0  0  0  0  0  0  0  0  0  0  0
   40.4625  -14.6285   -4.0256 C   0  0  0  0  0  0  0  0  0  0  0  0
   40.5512  -13.8784   -5.2215 O   0  0  0  0  0  0  0  0  0  0  0  0
   39.6384  -13.9897   -6.2335 C   0  0  0  0  0  0  0  0  0  0  0  0
   39.2356  -12.8950   -6.9527 C   0  0  0  0  0  0  0  0  0  0  0  0
   38.3266  -12.9788   -7.9685 C   0  0  0  0  0  0  0  0  0  0  0  0
   39.7988  -11.6788   -6.6003 O   0  0  0  0  0  0  0  0  0  0  0  0
   39.6086  -10.5658   -7.4520 C   0  0  0  0  0  0  0  0  0  0  0  0
   39.0958  -15.2382   -6.5546 C   0  0  0  0  0  0  0  0  0  0  0  0
   38.1764  -15.3414   -7.5770 C   0  0  0  0  0  0  0  0  0  0  0  0
   37.7890  -14.1974   -8.2908 C   0  0  0  0  0  0  0  0  0  0  0  0
   36.8898  -14.3472   -9.2794 N   0  0  0  0  0  0  0  0  0  0  0  0
   36.3608  -15.5387   -9.5973 C   0  0  0  0  0  0  0  0  0  0  0  0
   36.7503  -16.6106   -8.8973 N   0  0  0  0  0  0  0  0  0  0  0  0
   37.6404  -16.5648   -7.8943 C   0  0  0  0  0  0  0  0  0  0  0  0
   37.9902  -17.7180   -7.1697 N   0  0  0  0  0  0  0  0  0  0  0  0
   37.5137  -18.9850   -7.6291 C   0  0  0  0  0  0  0  0  0  0  0  0
   36.5897  -19.6655   -6.8936 C   0  0  0  0  0  0  0  0  0  0  0  0
   36.1241  -20.9224   -7.3122 C   0  0  0  0  0  0  0  0  0  0  0  0
   34.9304  -21.7959   -6.3539 Cl  0  0  0  0  0  0  0  0  0  0  0  0
   36.5903  -21.4940   -8.4739 C   0  0  0  0  0  0  0  0  0  0  0  0
   36.1644  -22.6923   -8.8973 F   0  0  0  0  0  0  0  0  0  0  0  0
   37.5348  -20.7841   -9.2151 C   0  0  0  0  0  0  0  0  0  0  0  0
   37.9866  -19.5522   -8.7975 C   0  0  0  0  0  0  0  0  0  0  0  0
 20 19  2  0
 20 21  1  0
 18 13  1  0
 18 17  2  0
 18 19  1  0
 17 16  1  0
 17 22  1  0
 22 21  2  0
 22 23  1  0
 15 14  1  0
 30 28  1  0
 30 31  2  0
 31 24  1  0
 25 24  2  0
 25 26  1  0
 13 12  2  0
 16 11  2  0
  8  7  1  0
  8  9  1  0
  9 10  1  0
  2  1  1  0
  2  3  1  0
  4  3  1  0
  4  5  1  0
  7  6  1  0
  1  6  1  0
  5  6  1  0
 28 26  2  0
 28 29  1  0
 26 27  1  0
 24 23  1  0
 12 11  1  0
 12 14  1  0
 11 10  1  0
M  CHG  1   6   1
M  END
$$$$
