
     RDKit          3D

 31 34  0  0  0  0  0  0  0  0999 V2000
   41.6684    2.3217  -36.0877 C   0  0  0  0  0  0  0  0  0  0  0  0
   41.4664    2.0668  -37.5526 C   0  0  0  0  0  0  0  0  0  0  0  0
   40.7349    3.0731  -38.1345 O   0  0  0  0  0  0  0  0  0  0  0  0
   39.9712    3.7199  -37.1950 C   0  0  0  0  0  0  0  0  0  0  0  0
   39.3672    2.7974  -36.1582 C   0  0  0  0  0  0  0  0  0  0  0  0
   40.4064    2.2287  -35.3427 N   0  0  0  0  0  4  0  0  0  0  0  0
   40.2044    0.8302  -35.0613 C   0  0  0  0  0  0  0  0  0  0  0  0
   38.8587    0.4909  -34.5079 C   0  0  0  0  0  0  0  0  0  0  0  0
   38.8008    0.5312  -32.9949 C   0  0  0  0  0  0  0  0  0  0  0  0
   38.0395   -0.5449  -32.4822 O   0  0  0  0  0  0  0  0  0  0  0  0
   37.4293   -0.5024  -31.2591 C   0  0  0  0  0  0  0  0  0  0  0  0
   37.7036   -1.4354  -30.2937 C   0  0  0  0  0  0  0  0  0  0  0  0
   37.1093   -1.4151  -29.0643 C   0  0  0  0  0  0  0  0  0  0  0  0
   38.6250   -2.4169  -30.6225 O   0  0  0  0  0  0  0  0  0  0  0  0
   39.2437   -3.1488  -29.5824 C   0  0  0  0  0  0  0  0  0  0  0  0
   36.5051    0.5071  -30.9711 C   0  0  0  0  0  0  0  0  0  0  0  0
   35.8950    0.5428  -29.7351 C   0  0  0  0  0  0  0  0  0  0  0  0
   36.2022   -0.4303  -28.7723 C   0  0  0  0  0  0  0  0  0  0  0  0
   35.5823   -0.3547  -27.5813 N   0  0  0  0  0  0  0  0  0  0  0  0
   34.6932    0.6078  -27.2920 C   0  0  0  0  0  0  0  0  0  0  0  0
   34.4213    1.5208  -28.2318 N   0  0  0  0  0  0  0  0  0  0  0  0
   34.9862    1.5312  -29.4488 C   0  0  0  0  0  0  0  0  0  0  0  0
   34.6397    2.4962  -30.4110 N   0  0  0  0  0  0  0  0  0  0  0  0
   33.6317    3.4559  -30.0848 C   0  0  0  0  0  0  0  0  0  0  0  0
   33.6163    4.0236  -28.8457 C   0  0  0  0  0  0  0  0  0  0  0  0
   32.6223    4.9512  -28.4941 C   0  0  0  0  0  0  0  0  0  0  0  0
   32.6092    5.6790  -26.8890 Cl  0  0  0  0  0  0  0  0  0  0  0  0
   31.6429    5.3071  -29.3927 C   0  0  0  0  0  0  0  0  0  0  0  0
   30.6816    6.1890  -29.0844 F   0  0  0  0  0  0  0  0  0  0  0  0
   31.6737    4.7177  -30.6564 C   0  0  0  0  0  0  0  0  0  0  0  0
   32.6516    3.8087  -30.9934 C   0  0  0  0  0  0  0  0  0  0  0  0
 20 19  2  0
 20 21  1  0
 18 13  1  0
 18 17  2  0
 18 19  1  0
 17 16  1  0
 17 22  1  0
 22 21  2  0
 22 23  1  0
 15 14  1  0
 30 28  1  0
 30 31  2  0
 31 24  1  0
 25 24  2  0
 25 26  1  0
 13 12  2  0
 16 11  2  0
  8  7  1  0
  8  9  1  0
  9 10  1  0
  2  1  1  0
  2  3  1  0
  4  3  1  0
  4  5  1  0
  7  6  1  0
  1  6  1  0
  5  6  1  0
 28 26  2  0
 28 29  1  0
 26 27  1  0
 24 23  1  0
 12 11  1  0
 12 14  1  0
 11 10  1  0
M  CHG  1   6   1
M  END
$$$$
