
     RDKit          3D

 31 34  0  0  0  0  0  0  0  0999 V2000
   39.3455    2.5256  -36.0375 C   0  0  0  0  0  0  0  0  0  0  0  0
   40.5557    3.4070  -35.9366 C   0  0  0  0  0  0  0  0  0  0  0  0
   41.3703    3.2578  -37.0323 O   0  0  0  0  0  0  0  0  0  0  0  0
   41.1626    2.0375  -37.6255 C   0  0  0  0  0  0  0  0  0  0  0  0
   40.9423    0.9091  -36.6410 C   0  0  0  0  0  0  0  0  0  0  0  0
   39.7011    1.1041  -35.9411 N   0  0  0  0  0  4  0  0  0  0  0  0
   39.7904    0.8036  -34.5348 C   0  0  0  0  0  0  0  0  0  0  0  0
   39.1916   -0.5057  -34.1352 C   0  0  0  0  0  0  0  0  0  0  0  0
   38.0467   -0.3709  -33.1527 C   0  0  0  0  0  0  0  0  0  0  0  0
   38.5208   -0.2674  -31.8242 O   0  0  0  0  0  0  0  0  0  0  0  0
   37.6965   -0.3503  -30.7363 C   0  0  0  0  0  0  0  0  0  0  0  0
   37.8065   -1.3777  -29.8362 C   0  0  0  0  0  0  0  0  0  0  0  0
   36.9969   -1.4833  -28.7414 C   0  0  0  0  0  0  0  0  0  0  0  0
   38.7904   -2.3207  -30.0873 O   0  0  0  0  0  0  0  0  0  0  0  0
   39.0475   -3.3150  -29.1149 C   0  0  0  0  0  0  0  0  0  0  0  0
   36.7167    0.6248  -30.5227 C   0  0  0  0  0  0  0  0  0  0  0  0
   35.8902    0.5337  -29.4229 C   0  0  0  0  0  0  0  0  0  0  0  0
   36.0338   -0.5332  -28.5233 C   0  0  0  0  0  0  0  0  0  0  0  0
   35.2051   -0.5799  -27.4652 N   0  0  0  0  0  0  0  0  0  0  0  0
   34.2606    0.3483  -27.2487 C   0  0  0  0  0  0  0  0  0  0  0  0
   34.1486    1.3530  -28.1254 N   0  0  0  0  0  0  0  0  0  0  0  0
   34.9263    1.4880  -29.2103 C   0  0  0  0  0  0  0  0  0  0  0  0
   34.7442    2.5469  -30.1174 N   0  0  0  0  0  0  0  0  0  0  0  0
   33.7941    3.5659  -29.7971 C   0  0  0  0  0  0  0  0  0  0  0  0
   33.7973    4.1247  -28.5539 C   0  0  0  0  0  0  0  0  0  0  0  0
   32.8588    5.1105  -28.2083 C   0  0  0  0  0  0  0  0  0  0  0  0
   32.8693    5.8264  -26.5978 Cl  0  0  0  0  0  0  0  0  0  0  0  0
   31.9162    5.5337  -29.1171 C   0  0  0  0  0  0  0  0  0  0  0  0
   31.0081    6.4721  -28.8147 F   0  0  0  0  0  0  0  0  0  0  0  0
   31.9273    4.9523  -30.3849 C   0  0  0  0  0  0  0  0  0  0  0  0
   32.8508    3.9860  -30.7159 C   0  0  0  0  0  0  0  0  0  0  0  0
 20 19  2  0
 20 21  1  0
 18 13  1  0
 18 17  2  0
 18 19  1  0
 17 16  1  0
 17 22  1  0
 22 21  2  0
 22 23  1  0
 15 14  1  0
 30 28  1  0
 30 31  2  0
 31 24  1  0
 25 24  2  0
 25 26  1  0
 13 12  2  0
 16 11  2  0
  8  7  1  0
  8  9  1  0
  9 10  1  0
  2  1  1  0
  2  3  1  0
  4  3  1  0
  4  5  1  0
  7  6  1  0
  1  6  1  0
  5  6  1  0
 28 26  2  0
 28 29  1  0
 26 27  1  0
 24 23  1  0
 12 11  1  0
 12 14  1  0
 11 10  1  0
M  CHG  1   6   1
M  END
$$$$
