
     RDKit          3D

 31 34  0  0  0  0  0  0  0  0999 V2000
   40.7398    2.0508  -36.7534 C   0  0  0  0  0  0  0  0  0  0  0  0
   42.0212    1.2959  -36.9525 C   0  0  0  0  0  0  0  0  0  0  0  0
   41.9266    0.4304  -38.0147 O   0  0  0  0  0  0  0  0  0  0  0  0
   40.6152    0.1052  -38.2570 C   0  0  0  0  0  0  0  0  0  0  0  0
   39.7911   -0.0858  -37.0018 C   0  0  0  0  0  0  0  0  0  0  0  0
   39.6540    1.1674  -36.3096 N   0  0  0  0  0  4  0  0  0  0  0  0
   39.7913    1.0434  -34.8808 C   0  0  0  0  0  0  0  0  0  0  0  0
   38.5137    1.1669  -34.1159 C   0  0  0  0  0  0  0  0  0  0  0  0
   38.2090   -0.0389  -33.2514 C   0  0  0  0  0  0  0  0  0  0  0  0
   38.5436    0.2026  -31.8986 O   0  0  0  0  0  0  0  0  0  0  0  0
   37.6524    0.0347  -30.8751 C   0  0  0  0  0  0  0  0  0  0  0  0
   37.7092   -1.0609  -30.0540 C   0  0  0  0  0  0  0  0  0  0  0  0
   36.8324   -1.2521  -29.0245 C   0  0  0  0  0  0  0  0  0  0  0  0
   38.7105   -1.9823  -30.3163 O   0  0  0  0  0  0  0  0  0  0  0  0
   38.8619   -3.0911  -29.4513 C   0  0  0  0  0  0  0  0  0  0  0  0
   36.6575    0.9910  -30.6474 C   0  0  0  0  0  0  0  0  0  0  0  0
   35.7635    0.8141  -29.6127 C   0  0  0  0  0  0  0  0  0  0  0  0
   35.8539   -0.3210  -28.7932 C   0  0  0  0  0  0  0  0  0  0  0  0
   34.9601   -0.4504  -27.7968 N   0  0  0  0  0  0  0  0  0  0  0  0
   34.0003    0.4589  -27.5677 C   0  0  0  0  0  0  0  0  0  0  0  0
   33.9402    1.5302  -28.3673 N   0  0  0  0  0  0  0  0  0  0  0  0
   34.7845    1.7498  -29.3868 C   0  0  0  0  0  0  0  0  0  0  0  0
   34.6561    2.8775  -30.2168 N   0  0  0  0  0  0  0  0  0  0  0  0
   33.7384    3.9055  -29.8366 C   0  0  0  0  0  0  0  0  0  0  0  0
   33.6598    4.2909  -28.5315 C   0  0  0  0  0  0  0  0  0  0  0  0
   32.7495    5.2819  -28.1299 C   0  0  0  0  0  0  0  0  0  0  0  0
   32.6535    5.7728  -26.4399 Cl  0  0  0  0  0  0  0  0  0  0  0  0
   31.9177    5.8854  -29.0451 C   0  0  0  0  0  0  0  0  0  0  0  0
   31.0390    6.8333  -28.6903 F   0  0  0  0  0  0  0  0  0  0  0  0
   32.0116    5.4801  -30.3764 C   0  0  0  0  0  0  0  0  0  0  0  0
   32.9067    4.5073  -30.7620 C   0  0  0  0  0  0  0  0  0  0  0  0
 20 19  2  0
 20 21  1  0
 18 13  1  0
 18 17  2  0
 18 19  1  0
 17 16  1  0
 17 22  1  0
 22 21  2  0
 22 23  1  0
 15 14  1  0
 30 28  1  0
 30 31  2  0
 31 24  1  0
 25 24  2  0
 25 26  1  0
 13 12  2  0
 16 11  2  0
  8  7  1  0
  8  9  1  0
  9 10  1  0
  2  1  1  0
  2  3  1  0
  4  3  1  0
  4  5  1  0
  7  6  1  0
  1  6  1  0
  5  6  1  0
 28 26  2  0
 28 29  1  0
 26 27  1  0
 24 23  1  0
 12 11  1  0
 12 14  1  0
 11 10  1  0
M  CHG  1   6   1
M  END
$$$$
