
     RDKit          3D

 31 34  0  0  0  0  0  0  0  0999 V2000
   43.4366  -15.0288   -1.2807 C   0  0  0  0  0  0  0  0  0  0  0  0
   43.8013  -14.3613    0.0127 C   0  0  0  0  0  0  0  0  0  0  0  0
   43.5036  -15.1646    1.0862 O   0  0  0  0  0  0  0  0  0  0  0  0
   42.5238  -16.0675    0.7563 C   0  0  0  0  0  0  0  0  0  0  0  0
   41.4396  -15.4954   -0.1315 C   0  0  0  0  0  0  0  0  0  0  0  0
   41.9824  -15.1744   -1.4240 N   0  0  0  0  0  4  0  0  0  0  0  0
   41.4995  -13.9213   -1.9460 C   0  0  0  0  0  0  0  0  0  0  0  0
   41.7839  -13.6956   -3.3954 C   0  0  0  0  0  0  0  0  0  0  0  0
   40.6343  -14.0810   -4.3031 C   0  0  0  0  0  0  0  0  0  0  0  0
   40.8901  -13.7046   -5.6422 O   0  0  0  0  0  0  0  0  0  0  0  0
   39.9782  -13.8784   -6.6462 C   0  0  0  0  0  0  0  0  0  0  0  0
   39.7076  -12.8787   -7.5435 C   0  0  0  0  0  0  0  0  0  0  0  0
   38.8027  -13.0267   -8.5556 C   0  0  0  0  0  0  0  0  0  0  0  0
   40.4026  -11.6912   -7.3784 O   0  0  0  0  0  0  0  0  0  0  0  0
   40.2023  -10.6472   -8.3113 C   0  0  0  0  0  0  0  0  0  0  0  0
   39.2998  -15.0948   -6.7747 C   0  0  0  0  0  0  0  0  0  0  0  0
   38.3824  -15.2617   -7.7905 C   0  0  0  0  0  0  0  0  0  0  0  0
   38.1328  -14.2145   -8.6900 C   0  0  0  0  0  0  0  0  0  0  0  0
   37.2297  -14.4238   -9.6643 N   0  0  0  0  0  0  0  0  0  0  0  0
   36.5714  -15.5854   -9.7985 C   0  0  0  0  0  0  0  0  0  0  0  0
   36.8314  -16.5644   -8.9242 N   0  0  0  0  0  0  0  0  0  0  0  0
   37.7133  -16.4537   -7.9192 C   0  0  0  0  0  0  0  0  0  0  0  0
   37.9246  -17.5040   -7.0085 N   0  0  0  0  0  0  0  0  0  0  0  0
   37.5082  -18.8214   -7.3753 C   0  0  0  0  0  0  0  0  0  0  0  0
   37.6276  -19.2307   -8.6700 C   0  0  0  0  0  0  0  0  0  0  0  0
   37.2037  -20.5117   -9.0591 C   0  0  0  0  0  0  0  0  0  0  0  0
   37.3604  -21.0320  -10.7357 Cl  0  0  0  0  0  0  0  0  0  0  0  0
   36.6591  -21.3812   -8.1421 C   0  0  0  0  0  0  0  0  0  0  0  0
   36.2454  -22.6091   -8.4852 F   0  0  0  0  0  0  0  0  0  0  0  0
   36.5449  -20.9469   -6.8215 C   0  0  0  0  0  0  0  0  0  0  0  0
   36.9627  -19.6891   -6.4480 C   0  0  0  0  0  0  0  0  0  0  0  0
 20 19  2  0
 20 21  1  0
 18 13  1  0
 18 17  2  0
 18 19  1  0
 17 16  1  0
 17 22  1  0
 22 21  2  0
 22 23  1  0
 15 14  1  0
 30 28  1  0
 30 31  2  0
 31 24  1  0
 25 24  2  0
 25 26  1  0
 13 12  2  0
 16 11  2  0
  8  7  1  0
  8  9  1  0
  9 10  1  0
  2  1  1  0
  2  3  1  0
  4  3  1  0
  4  5  1  0
  7  6  1  0
  1  6  1  0
  5  6  1  0
 28 26  2  0
 28 29  1  0
 26 27  1  0
 24 23  1  0
 12 11  1  0
 12 14  1  0
 11 10  1  0
M  CHG  1   6   1
M  END
$$$$
