
     RDKit          3D

 31 34  0  0  0  0  0  0  0  0999 V2000
   43.1976  -15.8927   -1.2514 C   0  0  0  0  0  0  0  0  0  0  0  0
   43.9145  -14.8097   -0.5000 C   0  0  0  0  0  0  0  0  0  0  0  0
   43.4060  -14.6660    0.7678 O   0  0  0  0  0  0  0  0  0  0  0  0
   42.1170  -15.1341    0.8267 C   0  0  0  0  0  0  0  0  0  0  0  0
   41.2925  -14.8096   -0.4005 C   0  0  0  0  0  0  0  0  0  0  0  0
   41.8060  -15.5225   -1.5391 N   0  0  0  0  0  4  0  0  0  0  0  0
   41.8388  -14.7255   -2.7389 C   0  0  0  0  0  0  0  0  0  0  0  0
   40.5231  -14.5839   -3.4327 C   0  0  0  0  0  0  0  0  0  0  0  0
   40.4506  -13.3800   -4.3490 C   0  0  0  0  0  0  0  0  0  0  0  0
   40.8343  -13.7161   -5.6682 O   0  0  0  0  0  0  0  0  0  0  0  0
   39.9349  -13.8414   -6.6906 C   0  0  0  0  0  0  0  0  0  0  0  0
   39.6802  -12.8018   -7.5463 C   0  0  0  0  0  0  0  0  0  0  0  0
   38.7881  -12.9009   -8.5756 C   0  0  0  0  0  0  0  0  0  0  0  0
   40.3777  -11.6259   -7.3199 O   0  0  0  0  0  0  0  0  0  0  0  0
   40.2209  -10.5531   -8.2281 C   0  0  0  0  0  0  0  0  0  0  0  0
   39.2534  -15.0478   -6.8815 C   0  0  0  0  0  0  0  0  0  0  0  0
   38.3488  -15.1655   -7.9154 C   0  0  0  0  0  0  0  0  0  0  0  0
   38.1152  -14.0785   -8.7709 C   0  0  0  0  0  0  0  0  0  0  0  0
   37.2242  -14.2405   -9.7651 N   0  0  0  0  0  0  0  0  0  0  0  0
   36.5630  -15.3919   -9.9591 C   0  0  0  0  0  0  0  0  0  0  0  0
   36.8076  -16.4098   -9.1256 N   0  0  0  0  0  0  0  0  0  0  0  0
   37.6767  -16.3475   -8.1053 C   0  0  0  0  0  0  0  0  0  0  0  0
   37.8718  -17.4380   -7.2392 N   0  0  0  0  0  0  0  0  0  0  0  0
   37.3686  -18.7183   -7.6276 C   0  0  0  0  0  0  0  0  0  0  0  0
   37.5483  -19.1543   -8.9065 C   0  0  0  0  0  0  0  0  0  0  0  0
   37.0426  -20.3981   -9.3180 C   0  0  0  0  0  0  0  0  0  0  0  0
   37.2782  -20.9530  -10.9741 Cl  0  0  0  0  0  0  0  0  0  0  0  0
   36.3551  -21.2035   -8.4392 C   0  0  0  0  0  0  0  0  0  0  0  0
   35.8608  -22.3947   -8.8043 F   0  0  0  0  0  0  0  0  0  0  0  0
   36.1809  -20.7429   -7.1342 C   0  0  0  0  0  0  0  0  0  0  0  0
   36.6796  -19.5218   -6.7387 C   0  0  0  0  0  0  0  0  0  0  0  0
 20 19  2  0
 20 21  1  0
 18 13  1  0
 18 17  2  0
 18 19  1  0
 17 16  1  0
 17 22  1  0
 22 21  2  0
 22 23  1  0
 15 14  1  0
 30 28  1  0
 30 31  2  0
 31 24  1  0
 25 24  2  0
 25 26  1  0
 13 12  2  0
 16 11  2  0
  8  7  1  0
  8  9  1  0
  9 10  1  0
  2  1  1  0
  2  3  1  0
  4  3  1  0
  4  5  1  0
  7  6  1  0
  1  6  1  0
  5  6  1  0
 28 26  2  0
 28 29  1  0
 26 27  1  0
 24 23  1  0
 12 11  1  0
 12 14  1  0
 11 10  1  0
M  CHG  1   6   1
M  END
$$$$
