
     RDKit          3D

 31 34  0  0  0  0  0  0  0  0999 V2000
   40.4586    1.4030  -36.5958 C   0  0  0  0  0  0  0  0  0  0  0  0
   41.3926    0.4181  -37.2353 C   0  0  0  0  0  0  0  0  0  0  0  0
   40.9914    0.1120  -38.5127 O   0  0  0  0  0  0  0  0  0  0  0  0
   39.6472    0.3440  -38.6650 C   0  0  0  0  0  0  0  0  0  0  0  0
   38.8195   -0.0445  -37.4588 C   0  0  0  0  0  0  0  0  0  0  0  0
   39.1361    0.8142  -36.3494 N   0  0  0  0  0  4  0  0  0  0  0  0
   39.2339    0.1089  -35.0968 C   0  0  0  0  0  0  0  0  0  0  0  0
   39.2423    0.9830  -33.8851 C   0  0  0  0  0  0  0  0  0  0  0  0
   38.0519    0.7638  -32.9746 C   0  0  0  0  0  0  0  0  0  0  0  0
   38.4301    0.0915  -31.7892 O   0  0  0  0  0  0  0  0  0  0  0  0
   37.5515   -0.1687  -30.7742 C   0  0  0  0  0  0  0  0  0  0  0  0
   37.6656   -1.2972  -30.0053 C   0  0  0  0  0  0  0  0  0  0  0  0
   36.8026   -1.5802  -28.9854 C   0  0  0  0  0  0  0  0  0  0  0  0
   38.7113   -2.1537  -30.3109 O   0  0  0  0  0  0  0  0  0  0  0  0
   38.9217   -3.2919  -29.4980 C   0  0  0  0  0  0  0  0  0  0  0  0
   36.5104    0.7246  -30.5015 C   0  0  0  0  0  0  0  0  0  0  0  0
   35.6293    0.4547  -29.4757 C   0  0  0  0  0  0  0  0  0  0  0  0
   35.7792   -0.7114  -28.7103 C   0  0  0  0  0  0  0  0  0  0  0  0
   34.8959   -0.9321  -27.7205 N   0  0  0  0  0  0  0  0  0  0  0  0
   33.8922   -0.0839  -27.4486 C   0  0  0  0  0  0  0  0  0  0  0  0
   33.7760    1.0191  -28.1972 N   0  0  0  0  0  0  0  0  0  0  0  0
   34.6052    1.3283  -29.2057 C   0  0  0  0  0  0  0  0  0  0  0  0
   34.4178    2.4856  -29.9820 N   0  0  0  0  0  0  0  0  0  0  0  0
   33.4706    3.4603  -29.5389 C   0  0  0  0  0  0  0  0  0  0  0  0
   33.4650    3.8508  -28.2330 C   0  0  0  0  0  0  0  0  0  0  0  0
   32.5289    4.7892  -27.7691 C   0  0  0  0  0  0  0  0  0  0  0  0
   32.5279    5.2871  -26.0784 Cl  0  0  0  0  0  0  0  0  0  0  0  0
   31.5975    5.3347  -28.6226 C   0  0  0  0  0  0  0  0  0  0  0  0
   30.6920    6.2315  -28.2075 F   0  0  0  0  0  0  0  0  0  0  0  0
   31.6176    4.9250  -29.9557 C   0  0  0  0  0  0  0  0  0  0  0  0
   32.5386    4.0041  -30.4027 C   0  0  0  0  0  0  0  0  0  0  0  0
 20 19  2  0
 20 21  1  0
 18 13  1  0
 18 17  2  0
 18 19  1  0
 17 16  1  0
 17 22  1  0
 22 21  2  0
 22 23  1  0
 15 14  1  0
 30 28  1  0
 30 31  2  0
 31 24  1  0
 25 24  2  0
 25 26  1  0
 13 12  2  0
 16 11  2  0
  8  7  1  0
  8  9  1  0
  9 10  1  0
  2  1  1  0
  2  3  1  0
  4  3  1  0
  4  5  1  0
  7  6  1  0
  1  6  1  0
  5  6  1  0
 28 26  2  0
 28 29  1  0
 26 27  1  0
 24 23  1  0
 12 11  1  0
 12 14  1  0
 11 10  1  0
M  CHG  1   6   1
M  END
$$$$
