
     RDKit          3D

 31 34  0  0  0  0  0  0  0  0999 V2000
   39.8322    3.1603  -36.6530 C   0  0  0  0  0  0  0  0  0  0  0  0
   40.8684    2.6659  -37.6193 C   0  0  0  0  0  0  0  0  0  0  0  0
   40.2900    2.2312  -38.7867 O   0  0  0  0  0  0  0  0  0  0  0  0
   38.9809    1.8773  -38.5741 C   0  0  0  0  0  0  0  0  0  0  0  0
   38.7463    1.1653  -37.2592 C   0  0  0  0  0  0  0  0  0  0  0  0
   38.9822    2.0672  -36.1641 N   0  0  0  0  0  4  0  0  0  0  0  0
   39.6959    1.4570  -35.0713 C   0  0  0  0  0  0  0  0  0  0  0  0
   39.1269    0.1586  -34.5992 C   0  0  0  0  0  0  0  0  0  0  0  0
   38.0923    0.3157  -33.5042 C   0  0  0  0  0  0  0  0  0  0  0  0
   38.4314   -0.4505  -32.3648 O   0  0  0  0  0  0  0  0  0  0  0  0
   37.6406   -0.5087  -31.2507 C   0  0  0  0  0  0  0  0  0  0  0  0
   37.7538   -1.5351  -30.3499 C   0  0  0  0  0  0  0  0  0  0  0  0
   36.9774   -1.6163  -29.2293 C   0  0  0  0  0  0  0  0  0  0  0  0
   38.7052   -2.5034  -30.6282 O   0  0  0  0  0  0  0  0  0  0  0  0
   39.3244   -3.1815  -29.5524 C   0  0  0  0  0  0  0  0  0  0  0  0
   36.6929    0.4915  -31.0103 C   0  0  0  0  0  0  0  0  0  0  0  0
   35.9002    0.4254  -29.8840 C   0  0  0  0  0  0  0  0  0  0  0  0
   36.0459   -0.6415  -28.9847 C   0  0  0  0  0  0  0  0  0  0  0  0
   35.2507   -0.6634  -27.9004 N   0  0  0  0  0  0  0  0  0  0  0  0
   34.3371    0.2891  -27.6580 C   0  0  0  0  0  0  0  0  0  0  0  0
   34.2221    1.2930  -28.5352 N   0  0  0  0  0  0  0  0  0  0  0  0
   34.9678    1.4044  -29.6451 C   0  0  0  0  0  0  0  0  0  0  0  0
   34.7831    2.4641  -30.5506 N   0  0  0  0  0  0  0  0  0  0  0  0
   33.8548    3.4976  -30.2136 C   0  0  0  0  0  0  0  0  0  0  0  0
   33.8217    3.9865  -28.9417 C   0  0  0  0  0  0  0  0  0  0  0  0
   32.9027    4.9851  -28.5808 C   0  0  0  0  0  0  0  0  0  0  0  0
   32.8659    5.6101  -26.9333 Cl  0  0  0  0  0  0  0  0  0  0  0  0
   32.0161    5.4917  -29.5032 C   0  0  0  0  0  0  0  0  0  0  0  0
   31.1278    6.4443  -29.1869 F   0  0  0  0  0  0  0  0  0  0  0  0
   32.0639    4.9812  -30.8004 C   0  0  0  0  0  0  0  0  0  0  0  0
   32.9679    4.0018  -31.1462 C   0  0  0  0  0  0  0  0  0  0  0  0
 20 19  2  0
 20 21  1  0
 18 13  1  0
 18 17  2  0
 18 19  1  0
 17 16  1  0
 17 22  1  0
 22 21  2  0
 22 23  1  0
 15 14  1  0
 30 28  1  0
 30 31  2  0
 31 24  1  0
 25 24  2  0
 25 26  1  0
 13 12  2  0
 16 11  2  0
  8  7  1  0
  8  9  1  0
  9 10  1  0
  2  1  1  0
  2  3  1  0
  4  3  1  0
  4  5  1  0
  7  6  1  0
  1  6  1  0
  5  6  1  0
 28 26  2  0
 28 29  1  0
 26 27  1  0
 24 23  1  0
 12 11  1  0
 12 14  1  0
 11 10  1  0
M  CHG  1   6   1
M  END
$$$$
