
     RDKit          3D

 31 34  0  0  0  0  0  0  0  0999 V2000
   44.1555  -13.2024   -2.1663 C   0  0  0  0  0  0  0  0  0  0  0  0
   44.9477  -12.0685   -2.7477 C   0  0  0  0  0  0  0  0  0  0  0  0
   45.4845  -11.2806   -1.7590 O   0  0  0  0  0  0  0  0  0  0  0  0
   44.7621  -11.4037   -0.5984 C   0  0  0  0  0  0  0  0  0  0  0  0
   43.2670  -11.4953   -0.8161 C   0  0  0  0  0  0  0  0  0  0  0  0
   42.9436  -12.7248   -1.4884 N   0  0  0  0  0  4  0  0  0  0  0  0
   41.9432  -12.5643   -2.5128 C   0  0  0  0  0  0  0  0  0  0  0  0
   41.2944  -13.8343   -2.9588 C   0  0  0  0  0  0  0  0  0  0  0  0
   40.1127  -13.6166   -3.8809 C   0  0  0  0  0  0  0  0  0  0  0  0
   40.5373  -13.3257   -5.1983 O   0  0  0  0  0  0  0  0  0  0  0  0
   39.7549  -13.5577   -6.2956 C   0  0  0  0  0  0  0  0  0  0  0  0
   39.5549  -12.5900   -7.2449 C   0  0  0  0  0  0  0  0  0  0  0  0
   38.7795  -12.7960   -8.3501 C   0  0  0  0  0  0  0  0  0  0  0  0
   40.1832  -11.3731   -7.0333 O   0  0  0  0  0  0  0  0  0  0  0  0
   40.1164  -10.3852   -8.0433 C   0  0  0  0  0  0  0  0  0  0  0  0
   39.1399  -14.8019   -6.4681 C   0  0  0  0  0  0  0  0  0  0  0  0
   38.3531  -15.0274   -7.5778 C   0  0  0  0  0  0  0  0  0  0  0  0
   38.1724  -14.0115   -8.5283 C   0  0  0  0  0  0  0  0  0  0  0  0
   37.3967  -14.2779   -9.5940 N   0  0  0  0  0  0  0  0  0  0  0  0
   36.8002  -15.4667   -9.7715 C   0  0  0  0  0  0  0  0  0  0  0  0
   36.9917  -16.4147   -8.8467 N   0  0  0  0  0  0  0  0  0  0  0  0
   37.7465  -16.2469   -7.7501 C   0  0  0  0  0  0  0  0  0  0  0  0
   37.8879  -17.2671   -6.7928 N   0  0  0  0  0  0  0  0  0  0  0  0
   37.5589  -18.6068   -7.1675 C   0  0  0  0  0  0  0  0  0  0  0  0
   37.5454  -18.9549   -8.4852 C   0  0  0  0  0  0  0  0  0  0  0  0
   37.2025  -20.2585   -8.8792 C   0  0  0  0  0  0  0  0  0  0  0  0
   37.1861  -20.6993  -10.5856 Cl  0  0  0  0  0  0  0  0  0  0  0  0
   36.8730  -21.2123   -7.9437 C   0  0  0  0  0  0  0  0  0  0  0  0
   36.5410  -22.4637   -8.2907 F   0  0  0  0  0  0  0  0  0  0  0  0
   36.8926  -20.8398   -6.5997 C   0  0  0  0  0  0  0  0  0  0  0  0
   37.2297  -19.5594   -6.2216 C   0  0  0  0  0  0  0  0  0  0  0  0
 20 19  2  0
 20 21  1  0
 18 13  1  0
 18 17  2  0
 18 19  1  0
 17 16  1  0
 17 22  1  0
 22 21  2  0
 22 23  1  0
 15 14  1  0
 30 28  1  0
 30 31  2  0
 31 24  1  0
 25 24  2  0
 25 26  1  0
 13 12  2  0
 16 11  2  0
  8  7  1  0
  8  9  1  0
  9 10  1  0
  2  1  1  0
  2  3  1  0
  4  3  1  0
  4  5  1  0
  7  6  1  0
  1  6  1  0
  5  6  1  0
 28 26  2  0
 28 29  1  0
 26 27  1  0
 24 23  1  0
 12 11  1  0
 12 14  1  0
 11 10  1  0
M  CHG  1   6   1
M  END
$$$$
