
     RDKit          3D

 31 34  0  0  0  0  0  0  0  0999 V2000
   40.0613  -14.7665   -0.8616 C   0  0  0  0  0  0  0  0  0  0  0  0
   40.8506  -16.0352   -0.7237 C   0  0  0  0  0  0  0  0  0  0  0  0
   41.9796  -15.8367    0.0329 O   0  0  0  0  0  0  0  0  0  0  0  0
   42.3507  -14.5154    0.0087 C   0  0  0  0  0  0  0  0  0  0  0  0
   42.1748  -13.8560   -1.3423 C   0  0  0  0  0  0  0  0  0  0  0  0
   40.7765  -13.7685   -1.6671 N   0  0  0  0  0  4  0  0  0  0  0  0
   40.4941  -14.0822   -3.0447 C   0  0  0  0  0  0  0  0  0  0  0  0
   40.8114  -15.4864   -3.4448 C   0  0  0  0  0  0  0  0  0  0  0  0
   41.3737  -15.6020   -4.8464 C   0  0  0  0  0  0  0  0  0  0  0  0
   41.1064  -14.4376   -5.6036 O   0  0  0  0  0  0  0  0  0  0  0  0
   40.1237  -14.3823   -6.5529 C   0  0  0  0  0  0  0  0  0  0  0  0
   39.8699  -13.2294   -7.2487 C   0  0  0  0  0  0  0  0  0  0  0  0
   38.8956  -13.1477   -8.2021 C   0  0  0  0  0  0  0  0  0  0  0  0
   40.6568  -12.1314   -6.9395 O   0  0  0  0  0  0  0  0  0  0  0  0
   40.4695  -10.9312   -7.6639 C   0  0  0  0  0  0  0  0  0  0  0  0
   39.3536  -15.5160   -6.8321 C   0  0  0  0  0  0  0  0  0  0  0  0
   38.3652  -15.4515   -7.7913 C   0  0  0  0  0  0  0  0  0  0  0  0
   38.1355  -14.2527   -8.4830 C   0  0  0  0  0  0  0  0  0  0  0  0
   37.1609  -14.2379   -9.4096 N   0  0  0  0  0  0  0  0  0  0  0  0
   36.4143  -15.3178   -9.6868 C   0  0  0  0  0  0  0  0  0  0  0  0
   36.6576  -16.4458   -9.0093 N   0  0  0  0  0  0  0  0  0  0  0  0
   37.6061  -16.5616   -8.0674 C   0  0  0  0  0  0  0  0  0  0  0  0
   37.7981  -17.7630   -7.3624 N   0  0  0  0  0  0  0  0  0  0  0  0
   37.1883  -18.9549   -7.8634 C   0  0  0  0  0  0  0  0  0  0  0  0
   36.0743  -18.8661   -8.6439 C   0  0  0  0  0  0  0  0  0  0  0  0
   35.4439  -20.0237   -9.1283 C   0  0  0  0  0  0  0  0  0  0  0  0
   34.0030  -19.8994  -10.1355 Cl  0  0  0  0  0  0  0  0  0  0  0  0
   35.9372  -21.2722   -8.8259 C   0  0  0  0  0  0  0  0  0  0  0  0
   35.3559  -22.3939   -9.2737 F   0  0  0  0  0  0  0  0  0  0  0  0
   37.0782  -21.3452   -8.0270 C   0  0  0  0  0  0  0  0  0  0  0  0
   37.6903  -20.2053   -7.5557 C   0  0  0  0  0  0  0  0  0  0  0  0
 20 19  2  0
 20 21  1  0
 18 13  1  0
 18 17  2  0
 18 19  1  0
 17 16  1  0
 17 22  1  0
 22 21  2  0
 22 23  1  0
 15 14  1  0
 30 28  1  0
 30 31  2  0
 31 24  1  0
 25 24  2  0
 25 26  1  0
 13 12  2  0
 16 11  2  0
  8  7  1  0
  8  9  1  0
  9 10  1  0
  2  1  1  0
  2  3  1  0
  4  3  1  0
  4  5  1  0
  7  6  1  0
  1  6  1  0
  5  6  1  0
 28 26  2  0
 28 29  1  0
 26 27  1  0
 24 23  1  0
 12 11  1  0
 12 14  1  0
 11 10  1  0
M  CHG  1   6   1
M  END
$$$$
