
     RDKit          3D

 31 34  0  0  0  0  0  0  0  0999 V2000
   42.9556  -15.2300   -0.6370 C   0  0  0  0  0  0  0  0  0  0  0  0
   44.4190  -15.5151   -0.8065 C   0  0  0  0  0  0  0  0  0  0  0  0
   45.1732  -14.7717    0.0680 O   0  0  0  0  0  0  0  0  0  0  0  0
   44.4899  -13.6474    0.4595 C   0  0  0  0  0  0  0  0  0  0  0  0
   43.6939  -12.9981   -0.6521 C   0  0  0  0  0  0  0  0  0  0  0  0
   42.6180  -13.8634   -1.0550 N   0  0  0  0  0  4  0  0  0  0  0  0
   42.4333  -13.9106   -2.4831 C   0  0  0  0  0  0  0  0  0  0  0  0
   41.0894  -14.3915   -2.9250 C   0  0  0  0  0  0  0  0  0  0  0  0
   40.3706  -13.4192   -3.8372 C   0  0  0  0  0  0  0  0  0  0  0  0
   40.7826  -13.5769   -5.1810 O   0  0  0  0  0  0  0  0  0  0  0  0
   39.8991  -13.7594   -6.2087 C   0  0  0  0  0  0  0  0  0  0  0  0
   39.6025  -12.7455   -7.0814 C   0  0  0  0  0  0  0  0  0  0  0  0
   38.7251  -12.9016   -8.1162 C   0  0  0  0  0  0  0  0  0  0  0  0
   40.2411  -11.5345   -6.8665 O   0  0  0  0  0  0  0  0  0  0  0  0
   40.0234  -10.4762   -7.7792 C   0  0  0  0  0  0  0  0  0  0  0  0
   39.2776  -14.9996   -6.3874 C   0  0  0  0  0  0  0  0  0  0  0  0
   38.3886  -15.1751   -7.4266 C   0  0  0  0  0  0  0  0  0  0  0  0
   38.1108  -14.1127   -8.2997 C   0  0  0  0  0  0  0  0  0  0  0  0
   37.2372  -14.3312   -9.2986 N   0  0  0  0  0  0  0  0  0  0  0  0
   36.6334  -15.5156   -9.4810 C   0  0  0  0  0  0  0  0  0  0  0  0
   36.9191  -16.5087   -8.6309 N   0  0  0  0  0  0  0  0  0  0  0  0
   37.7754  -16.3905   -7.6047 C   0  0  0  0  0  0  0  0  0  0  0  0
   38.0147  -17.4580   -6.7213 N   0  0  0  0  0  0  0  0  0  0  0  0
   37.5743  -18.7659   -7.0939 C   0  0  0  0  0  0  0  0  0  0  0  0
   37.7733  -19.2073   -8.3681 C   0  0  0  0  0  0  0  0  0  0  0  0
   37.3285  -20.4791   -8.7642 C   0  0  0  0  0  0  0  0  0  0  0  0
   37.5886  -21.0409  -10.4144 Cl  0  0  0  0  0  0  0  0  0  0  0  0
   36.6828  -21.3070   -7.8748 C   0  0  0  0  0  0  0  0  0  0  0  0
   36.2469  -22.5251   -8.2251 F   0  0  0  0  0  0  0  0  0  0  0  0
   36.4882  -20.8404   -6.5748 C   0  0  0  0  0  0  0  0  0  0  0  0
   36.9270  -19.5918   -6.1944 C   0  0  0  0  0  0  0  0  0  0  0  0
 20 19  2  0
 20 21  1  0
 18 13  1  0
 18 17  2  0
 18 19  1  0
 17 16  1  0
 17 22  1  0
 22 21  2  0
 22 23  1  0
 15 14  1  0
 30 28  1  0
 30 31  2  0
 31 24  1  0
 25 24  2  0
 25 26  1  0
 13 12  2  0
 16 11  2  0
  8  7  1  0
  8  9  1  0
  9 10  1  0
  2  1  1  0
  2  3  1  0
  4  3  1  0
  4  5  1  0
  7  6  1  0
  1  6  1  0
  5  6  1  0
 28 26  2  0
 28 29  1  0
 26 27  1  0
 24 23  1  0
 12 11  1  0
 12 14  1  0
 11 10  1  0
M  CHG  1   6   1
M  END
$$$$
