
     RDKit          3D

 31 34  0  0  0  0  0  0  0  0999 V2000
   41.0951    1.3935  -36.2831 C   0  0  0  0  0  0  0  0  0  0  0  0
   42.1708    0.4276  -36.6850 C   0  0  0  0  0  0  0  0  0  0  0  0
   41.9921   -0.0040  -37.9765 O   0  0  0  0  0  0  0  0  0  0  0  0
   40.6774    0.1231  -38.3502 C   0  0  0  0  0  0  0  0  0  0  0  0
   39.6940   -0.2257  -37.2537 C   0  0  0  0  0  0  0  0  0  0  0  0
   39.7851    0.7367  -36.1889 N   0  0  0  0  0  4  0  0  0  0  0  0
   39.7246    0.1398  -34.8790 C   0  0  0  0  0  0  0  0  0  0  0  0
   39.4444    1.0975  -33.7668 C   0  0  0  0  0  0  0  0  0  0  0  0
   38.1237    0.8434  -33.0701 C   0  0  0  0  0  0  0  0  0  0  0  0
   38.2396   -0.1920  -32.1137 O   0  0  0  0  0  0  0  0  0  0  0  0
   37.3892   -0.3145  -31.0499 C   0  0  0  0  0  0  0  0  0  0  0  0
   37.4335   -1.4078  -30.2250 C   0  0  0  0  0  0  0  0  0  0  0  0
   36.5968   -1.5542  -29.1556 C   0  0  0  0  0  0  0  0  0  0  0  0
   38.3792   -2.3750  -30.5261 O   0  0  0  0  0  0  0  0  0  0  0  0
   38.5750   -3.4440  -29.6209 C   0  0  0  0  0  0  0  0  0  0  0  0
   36.4499    0.6871  -30.7838 C   0  0  0  0  0  0  0  0  0  0  0  0
   35.5967    0.5557  -29.7086 C   0  0  0  0  0  0  0  0  0  0  0  0
   35.6729   -0.5786  -28.8865 C   0  0  0  0  0  0  0  0  0  0  0  0
   34.8204   -0.6626  -27.8498 N   0  0  0  0  0  0  0  0  0  0  0  0
   33.9141    0.2905  -27.5836 C   0  0  0  0  0  0  0  0  0  0  0  0
   33.8662    1.3597  -28.3868 N   0  0  0  0  0  0  0  0  0  0  0  0
   34.6724    1.5360  -29.4448 C   0  0  0  0  0  0  0  0  0  0  0  0
   34.5575    2.6646  -30.2756 N   0  0  0  0  0  0  0  0  0  0  0  0
   33.7167    3.7411  -29.8543 C   0  0  0  0  0  0  0  0  0  0  0  0
   33.7170    4.1256  -28.5466 C   0  0  0  0  0  0  0  0  0  0  0  0
   32.8824    5.1648  -28.1043 C   0  0  0  0  0  0  0  0  0  0  0  0
   32.8882    5.6541  -26.4112 Cl  0  0  0  0  0  0  0  0  0  0  0  0
   32.0466    5.8173  -28.9814 C   0  0  0  0  0  0  0  0  0  0  0  0
   31.2390    6.8118  -28.5873 F   0  0  0  0  0  0  0  0  0  0  0  0
   32.0592    5.4122  -30.3160 C   0  0  0  0  0  0  0  0  0  0  0  0
   32.8804    4.3921  -30.7417 C   0  0  0  0  0  0  0  0  0  0  0  0
 20 19  2  0
 20 21  1  0
 18 13  1  0
 18 17  2  0
 18 19  1  0
 17 16  1  0
 17 22  1  0
 22 21  2  0
 22 23  1  0
 15 14  1  0
 30 28  1  0
 30 31  2  0
 31 24  1  0
 25 24  2  0
 25 26  1  0
 13 12  2  0
 16 11  2  0
  8  7  1  0
  8  9  1  0
  9 10  1  0
  2  1  1  0
  2  3  1  0
  4  3  1  0
  4  5  1  0
  7  6  1  0
  1  6  1  0
  5  6  1  0
 28 26  2  0
 28 29  1  0
 26 27  1  0
 24 23  1  0
 12 11  1  0
 12 14  1  0
 11 10  1  0
M  CHG  1   6   1
M  END
$$$$
