
     RDKit          3D

 31 34  0  0  0  0  0  0  0  0999 V2000
   43.9072  -14.1180   -1.4074 C   0  0  0  0  0  0  0  0  0  0  0  0
   43.9869  -12.7406   -0.8176 C   0  0  0  0  0  0  0  0  0  0  0  0
   43.4809  -12.7181    0.4590 O   0  0  0  0  0  0  0  0  0  0  0  0
   42.6014  -13.7549    0.6479 C   0  0  0  0  0  0  0  0  0  0  0  0
   41.7198  -14.0341   -0.5504 C   0  0  0  0  0  0  0  0  0  0  0  0
   42.5166  -14.5275   -1.6413 N   0  0  0  0  0  4  0  0  0  0  0  0
   42.1393  -13.9708   -2.9155 C   0  0  0  0  0  0  0  0  0  0  0  0
   40.7949  -14.3949   -3.4107 C   0  0  0  0  0  0  0  0  0  0  0  0
   40.0653  -13.3118   -4.1781 C   0  0  0  0  0  0  0  0  0  0  0  0
   40.4318  -13.3159   -5.5441 O   0  0  0  0  0  0  0  0  0  0  0  0
   39.5317  -13.5317   -6.5506 C   0  0  0  0  0  0  0  0  0  0  0  0
   39.1185  -12.5118   -7.3671 C   0  0  0  0  0  0  0  0  0  0  0  0
   38.2218  -12.7004   -8.3798 C   0  0  0  0  0  0  0  0  0  0  0  0
   39.6579  -11.2597   -7.1184 O   0  0  0  0  0  0  0  0  0  0  0  0
   40.1867  -10.5168   -8.1995 C   0  0  0  0  0  0  0  0  0  0  0  0
   39.0132  -14.8129   -6.7652 C   0  0  0  0  0  0  0  0  0  0  0  0
   38.1065  -15.0216   -7.7828 C   0  0  0  0  0  0  0  0  0  0  0  0
   37.7078  -13.9518   -8.5981 C   0  0  0  0  0  0  0  0  0  0  0  0
   36.8216  -14.2037   -9.5778 N   0  0  0  0  0  0  0  0  0  0  0  0
   36.3157  -15.4276   -9.7941 C   0  0  0  0  0  0  0  0  0  0  0  0
   36.7154  -16.4267   -8.9988 N   0  0  0  0  0  0  0  0  0  0  0  0
   37.5940  -16.2774   -7.9958 C   0  0  0  0  0  0  0  0  0  0  0  0
   37.9552  -17.3560   -7.1692 N   0  0  0  0  0  0  0  0  0  0  0  0
   37.5162  -18.6686   -7.5268 C   0  0  0  0  0  0  0  0  0  0  0  0
   37.6302  -19.0897   -8.8182 C   0  0  0  0  0  0  0  0  0  0  0  0
   37.1844  -20.3659   -9.1984 C   0  0  0  0  0  0  0  0  0  0  0  0
   37.3343  -20.9014  -10.8708 Cl  0  0  0  0  0  0  0  0  0  0  0  0
   36.6232  -21.2187   -8.2757 C   0  0  0  0  0  0  0  0  0  0  0  0
   36.1884  -22.4417   -8.6102 F   0  0  0  0  0  0  0  0  0  0  0  0
   36.5148  -20.7726   -6.9586 C   0  0  0  0  0  0  0  0  0  0  0  0
   36.9542  -19.5195   -6.5939 C   0  0  0  0  0  0  0  0  0  0  0  0
 20 19  2  0
 20 21  1  0
 18 13  1  0
 18 17  2  0
 18 19  1  0
 17 16  1  0
 17 22  1  0
 22 21  2  0
 22 23  1  0
 15 14  1  0
 30 28  1  0
 30 31  2  0
 31 24  1  0
 25 24  2  0
 25 26  1  0
 13 12  2  0
 16 11  2  0
  8  7  1  0
  8  9  1  0
  9 10  1  0
  2  1  1  0
  2  3  1  0
  4  3  1  0
  4  5  1  0
  7  6  1  0
  1  6  1  0
  5  6  1  0
 28 26  2  0
 28 29  1  0
 26 27  1  0
 24 23  1  0
 12 11  1  0
 12 14  1  0
 11 10  1  0
M  CHG  1   6   1
M  END
$$$$
