
     RDKit          3D

 31 34  0  0  0  0  0  0  0  0999 V2000
   42.9824  -14.0887   -0.5225 C   0  0  0  0  0  0  0  0  0  0  0  0
   41.9284  -13.9133    0.5310 C   0  0  0  0  0  0  0  0  0  0  0  0
   41.6286  -15.1092    1.1362 O   0  0  0  0  0  0  0  0  0  0  0  0
   41.9454  -16.1600    0.3118 C   0  0  0  0  0  0  0  0  0  0  0  0
   41.6311  -15.9082   -1.1473 C   0  0  0  0  0  0  0  0  0  0  0  0
   42.4851  -14.8713   -1.6612 N   0  0  0  0  0  4  0  0  0  0  0  0
   41.7951  -13.9429   -2.5201 C   0  0  0  0  0  0  0  0  0  0  0  0
   42.0492  -14.1334   -3.9802 C   0  0  0  0  0  0  0  0  0  0  0  0
   41.0987  -15.1140   -4.6352 C   0  0  0  0  0  0  0  0  0  0  0  0
   39.8160  -14.5448   -4.8114 O   0  0  0  0  0  0  0  0  0  0  0  0
   39.1739  -14.5280   -6.0186 C   0  0  0  0  0  0  0  0  0  0  0  0
   39.1391  -13.3967   -6.7910 C   0  0  0  0  0  0  0  0  0  0  0  0
   38.5061  -13.3535   -8.0004 C   0  0  0  0  0  0  0  0  0  0  0  0
   39.7843  -12.2793   -6.2852 O   0  0  0  0  0  0  0  0  0  0  0  0
   39.8602  -11.1146   -7.0840 C   0  0  0  0  0  0  0  0  0  0  0  0
   38.5357  -15.6800   -6.4897 C   0  0  0  0  0  0  0  0  0  0  0  0
   37.8913  -15.6544   -7.7084 C   0  0  0  0  0  0  0  0  0  0  0  0
   37.8777  -14.4768   -8.4707 C   0  0  0  0  0  0  0  0  0  0  0  0
   37.2367  -14.4998   -9.6527 N   0  0  0  0  0  0  0  0  0  0  0  0
   36.6198  -15.5977  -10.1161 C   0  0  0  0  0  0  0  0  0  0  0  0
   36.6502  -16.7048   -9.3651 N   0  0  0  0  0  0  0  0  0  0  0  0
   37.2624  -16.7827   -8.1737 C   0  0  0  0  0  0  0  0  0  0  0  0
   37.2359  -17.9632   -7.4103 N   0  0  0  0  0  0  0  0  0  0  0  0
   36.5348  -19.0965   -7.9276 C   0  0  0  0  0  0  0  0  0  0  0  0
   35.2580  -18.9505   -8.3816 C   0  0  0  0  0  0  0  0  0  0  0  0
   34.5407  -20.0535   -8.8725 C   0  0  0  0  0  0  0  0  0  0  0  0
   32.8895  -19.8557   -9.4560 Cl  0  0  0  0  0  0  0  0  0  0  0  0
   35.1114  -21.3052   -8.9059 C   0  0  0  0  0  0  0  0  0  0  0  0
   34.4505  -22.3758   -9.3682 F   0  0  0  0  0  0  0  0  0  0  0  0
   36.4189  -21.4371   -8.4385 C   0  0  0  0  0  0  0  0  0  0  0  0
   37.1154  -20.3505   -7.9584 C   0  0  0  0  0  0  0  0  0  0  0  0
 20 19  2  0
 20 21  1  0
 18 13  1  0
 18 17  2  0
 18 19  1  0
 17 16  1  0
 17 22  1  0
 22 21  2  0
 22 23  1  0
 15 14  1  0
 30 28  1  0
 30 31  2  0
 31 24  1  0
 25 24  2  0
 25 26  1  0
 13 12  2  0
 16 11  2  0
  8  7  1  0
  8  9  1  0
  9 10  1  0
  2  1  1  0
  2  3  1  0
  4  3  1  0
  4  5  1  0
  7  6  1  0
  1  6  1  0
  5  6  1  0
 28 26  2  0
 28 29  1  0
 26 27  1  0
 24 23  1  0
 12 11  1  0
 12 14  1  0
 11 10  1  0
M  CHG  1   6   1
M  END
$$$$
