
     RDKit          3D

 31 34  0  0  0  0  0  0  0  0999 V2000
   43.6852  -13.3169   -1.7508 C   0  0  0  0  0  0  0  0  0  0  0  0
   43.7357  -13.2714   -0.2518 C   0  0  0  0  0  0  0  0  0  0  0  0
   44.3267  -14.4011    0.2587 O   0  0  0  0  0  0  0  0  0  0  0  0
   44.2288  -15.4413   -0.6315 C   0  0  0  0  0  0  0  0  0  0  0  0
   42.9034  -15.4993   -1.3601 C   0  0  0  0  0  0  0  0  0  0  0  0
   42.7719  -14.3620   -2.2305 N   0  0  0  0  0  4  0  0  0  0  0  0
   41.4517  -13.7851   -2.2134 C   0  0  0  0  0  0  0  0  0  0  0  0
   41.1727  -12.8271   -3.3256 C   0  0  0  0  0  0  0  0  0  0  0  0
   40.0464  -13.2708   -4.2359 C   0  0  0  0  0  0  0  0  0  0  0  0
   40.4322  -13.2112   -5.5953 O   0  0  0  0  0  0  0  0  0  0  0  0
   39.5622  -13.4528   -6.6222 C   0  0  0  0  0  0  0  0  0  0  0  0
   39.2506  -12.4797   -7.5353 C   0  0  0  0  0  0  0  0  0  0  0  0
   38.3860  -12.6950   -8.5703 C   0  0  0  0  0  0  0  0  0  0  0  0
   39.8600  -11.2472   -7.3618 O   0  0  0  0  0  0  0  0  0  0  0  0
   39.4931  -10.1782   -8.2121 C   0  0  0  0  0  0  0  0  0  0  0  0
   38.9702  -14.7127   -6.7583 C   0  0  0  0  0  0  0  0  0  0  0  0
   38.0945  -14.9477   -7.7971 C   0  0  0  0  0  0  0  0  0  0  0  0
   37.8007  -13.9258   -8.7123 C   0  0  0  0  0  0  0  0  0  0  0  0
   36.9410  -14.2019   -9.7089 N   0  0  0  0  0  0  0  0  0  0  0  0
   36.3655  -15.4058   -9.8508 C   0  0  0  0  0  0  0  0  0  0  0  0
   36.6658  -16.3591   -8.9611 N   0  0  0  0  0  0  0  0  0  0  0  0
   37.5102  -16.1826   -7.9334 C   0  0  0  0  0  0  0  0  0  0  0  0
   37.7657  -17.2100   -7.0080 N   0  0  0  0  0  0  0  0  0  0  0  0
   37.3993  -18.5479   -7.3533 C   0  0  0  0  0  0  0  0  0  0  0  0
   37.5354  -18.9739   -8.6408 C   0  0  0  0  0  0  0  0  0  0  0  0
   37.1602  -20.2761   -9.0089 C   0  0  0  0  0  0  0  0  0  0  0  0
   37.3382  -20.8179  -10.6766 Cl  0  0  0  0  0  0  0  0  0  0  0  0
   36.6474  -21.1500   -8.0779 C   0  0  0  0  0  0  0  0  0  0  0  0
   36.2804  -22.3981   -8.4007 F   0  0  0  0  0  0  0  0  0  0  0  0
   36.5155  -20.6986   -6.7648 C   0  0  0  0  0  0  0  0  0  0  0  0
   36.8855  -19.4200   -6.4120 C   0  0  0  0  0  0  0  0  0  0  0  0
 20 19  2  0
 20 21  1  0
 18 13  1  0
 18 17  2  0
 18 19  1  0
 17 16  1  0
 17 22  1  0
 22 21  2  0
 22 23  1  0
 15 14  1  0
 30 28  1  0
 30 31  2  0
 31 24  1  0
 25 24  2  0
 25 26  1  0
 13 12  2  0
 16 11  2  0
  8  7  1  0
  8  9  1  0
  9 10  1  0
  2  1  1  0
  2  3  1  0
  4  3  1  0
  4  5  1  0
  7  6  1  0
  1  6  1  0
  5  6  1  0
 28 26  2  0
 28 29  1  0
 26 27  1  0
 24 23  1  0
 12 11  1  0
 12 14  1  0
 11 10  1  0
M  CHG  1   6   1
M  END
$$$$
