
     RDKit          3D

 31 34  0  0  0  0  0  0  0  0999 V2000
   42.2450  -15.8699   -1.0881 C   0  0  0  0  0  0  0  0  0  0  0  0
   43.5176  -16.5873   -1.4306 C   0  0  0  0  0  0  0  0  0  0  0  0
   44.4917  -16.3434   -0.4936 O   0  0  0  0  0  0  0  0  0  0  0  0
   44.2437  -15.1648    0.1648 C   0  0  0  0  0  0  0  0  0  0  0  0
   43.7096  -14.0663   -0.7290 C   0  0  0  0  0  0  0  0  0  0  0  0
   42.3966  -14.4137   -1.2021 N   0  0  0  0  0  4  0  0  0  0  0  0
   42.1918  -14.0928   -2.5917 C   0  0  0  0  0  0  0  0  0  0  0  0
   40.7599  -13.9958   -3.0074 C   0  0  0  0  0  0  0  0  0  0  0  0
   40.5404  -13.1046   -4.2122 C   0  0  0  0  0  0  0  0  0  0  0  0
   40.8648  -13.7773   -5.4133 O   0  0  0  0  0  0  0  0  0  0  0  0
   39.9796  -13.9140   -6.4466 C   0  0  0  0  0  0  0  0  0  0  0  0
   39.6836  -12.8629   -7.2744 C   0  0  0  0  0  0  0  0  0  0  0  0
   38.8044  -12.9729   -8.3137 C   0  0  0  0  0  0  0  0  0  0  0  0
   40.3247  -11.6634   -7.0087 O   0  0  0  0  0  0  0  0  0  0  0  0
   40.7603  -10.8669   -8.0932 C   0  0  0  0  0  0  0  0  0  0  0  0
   39.3556  -15.1443   -6.6775 C   0  0  0  0  0  0  0  0  0  0  0  0
   38.4648  -15.2734   -7.7220 C   0  0  0  0  0  0  0  0  0  0  0  0
   38.1877  -14.1740   -8.5483 C   0  0  0  0  0  0  0  0  0  0  0  0
   37.3124  -14.3478   -9.5543 N   0  0  0  0  0  0  0  0  0  0  0  0
   36.7062  -15.5222   -9.7865 C   0  0  0  0  0  0  0  0  0  0  0  0
   36.9912  -16.5514   -8.9803 N   0  0  0  0  0  0  0  0  0  0  0  0
   37.8491  -16.4789   -7.9512 C   0  0  0  0  0  0  0  0  0  0  0  0
   38.0878  -17.5838   -7.1149 N   0  0  0  0  0  0  0  0  0  0  0  0
   37.5305  -18.8492   -7.4778 C   0  0  0  0  0  0  0  0  0  0  0  0
   37.7038  -19.3248   -8.7434 C   0  0  0  0  0  0  0  0  0  0  0  0
   37.1459  -20.5541   -9.1303 C   0  0  0  0  0  0  0  0  0  0  0  0
   37.3737  -21.1605  -10.7694 Cl  0  0  0  0  0  0  0  0  0  0  0  0
   36.4127  -21.3049   -8.2403 C   0  0  0  0  0  0  0  0  0  0  0  0
   35.8682  -22.4811   -8.5819 F   0  0  0  0  0  0  0  0  0  0  0  0
   36.2457  -20.8043   -6.9492 C   0  0  0  0  0  0  0  0  0  0  0  0
   36.7958  -19.5978   -6.5777 C   0  0  0  0  0  0  0  0  0  0  0  0
 20 19  2  0
 20 21  1  0
 18 13  1  0
 18 17  2  0
 18 19  1  0
 17 16  1  0
 17 22  1  0
 22 21  2  0
 22 23  1  0
 15 14  1  0
 30 28  1  0
 30 31  2  0
 31 24  1  0
 25 24  2  0
 25 26  1  0
 13 12  2  0
 16 11  2  0
  8  7  1  0
  8  9  1  0
  9 10  1  0
  2  1  1  0
  2  3  1  0
  4  3  1  0
  4  5  1  0
  7  6  1  0
  1  6  1  0
  5  6  1  0
 28 26  2  0
 28 29  1  0
 26 27  1  0
 24 23  1  0
 12 11  1  0
 12 14  1  0
 11 10  1  0
M  CHG  1   6   1
M  END
$$$$
