
     RDKit          3D

 31 34  0  0  0  0  0  0  0  0999 V2000
   40.7400    1.3292  -36.5011 C   0  0  0  0  0  0  0  0  0  0  0  0
   41.7987    0.4061  -37.0289 C   0  0  0  0  0  0  0  0  0  0  0  0
   41.4538   -0.0897  -38.2625 O   0  0  0  0  0  0  0  0  0  0  0  0
   40.0927   -0.0495  -38.4354 C   0  0  0  0  0  0  0  0  0  0  0  0
   39.3079   -0.4030  -37.1905 C   0  0  0  0  0  0  0  0  0  0  0  0
   39.5005    0.6077  -36.1856 N   0  0  0  0  0  4  0  0  0  0  0  0
   39.6733    0.0653  -34.8621 C   0  0  0  0  0  0  0  0  0  0  0  0
   39.4911    1.0499  -33.7532 C   0  0  0  0  0  0  0  0  0  0  0  0
   38.1656    0.9101  -33.0338 C   0  0  0  0  0  0  0  0  0  0  0  0
   38.1600   -0.2208  -32.1845 O   0  0  0  0  0  0  0  0  0  0  0  0
   37.3773   -0.3018  -31.0661 C   0  0  0  0  0  0  0  0  0  0  0  0
   37.5095   -1.3369  -30.1780 C   0  0  0  0  0  0  0  0  0  0  0  0
   36.7416   -1.4409  -29.0534 C   0  0  0  0  0  0  0  0  0  0  0  0
   38.4713   -2.2898  -30.4735 O   0  0  0  0  0  0  0  0  0  0  0  0
   38.8660   -3.1979  -29.4635 C   0  0  0  0  0  0  0  0  0  0  0  0
   36.4186    0.6833  -30.8081 C   0  0  0  0  0  0  0  0  0  0  0  0
   35.6342    0.5941  -29.6777 C   0  0  0  0  0  0  0  0  0  0  0  0
   35.7994   -0.4810  -28.7917 C   0  0  0  0  0  0  0  0  0  0  0  0
   35.0116   -0.5255  -27.7026 N   0  0  0  0  0  0  0  0  0  0  0  0
   34.0876    0.4124  -27.4434 C   0  0  0  0  0  0  0  0  0  0  0  0
   33.9541    1.4248  -28.3081 N   0  0  0  0  0  0  0  0  0  0  0  0
   34.6910    1.5583  -29.4214 C   0  0  0  0  0  0  0  0  0  0  0  0
   34.4868    2.6259  -30.3135 N   0  0  0  0  0  0  0  0  0  0  0  0
   33.5988    3.6781  -29.9290 C   0  0  0  0  0  0  0  0  0  0  0  0
   33.6519    4.1764  -28.6614 C   0  0  0  0  0  0  0  0  0  0  0  0
   32.7740    5.1936  -28.2533 C   0  0  0  0  0  0  0  0  0  0  0  0
   32.8486    5.8308  -26.6118 Cl  0  0  0  0  0  0  0  0  0  0  0  0
   31.8418    5.7094  -29.1242 C   0  0  0  0  0  0  0  0  0  0  0  0
   30.9910    6.6798  -28.7621 F   0  0  0  0  0  0  0  0  0  0  0  0
   31.8014    5.1891  -30.4177 C   0  0  0  0  0  0  0  0  0  0  0  0
   32.6656    4.1913  -30.8099 C   0  0  0  0  0  0  0  0  0  0  0  0
 20 19  2  0
 20 21  1  0
 18 13  1  0
 18 17  2  0
 18 19  1  0
 17 16  1  0
 17 22  1  0
 22 21  2  0
 22 23  1  0
 15 14  1  0
 30 28  1  0
 30 31  2  0
 31 24  1  0
 25 24  2  0
 25 26  1  0
 13 12  2  0
 16 11  2  0
  8  7  1  0
  8  9  1  0
  9 10  1  0
  2  1  1  0
  2  3  1  0
  4  3  1  0
  4  5  1  0
  7  6  1  0
  1  6  1  0
  5  6  1  0
 28 26  2  0
 28 29  1  0
 26 27  1  0
 24 23  1  0
 12 11  1  0
 12 14  1  0
 11 10  1  0
M  CHG  1   6   1
M  END
$$$$
