
     RDKit          3D

 31 34  0  0  0  0  0  0  0  0999 V2000
   41.0334   -1.5265  -35.9385 C   0  0  0  0  0  0  0  0  0  0  0  0
   41.6685   -0.7889  -37.0805 C   0  0  0  0  0  0  0  0  0  0  0  0
   42.9635   -0.4390  -36.7856 O   0  0  0  0  0  0  0  0  0  0  0  0
   43.1486   -0.3751  -35.4270 C   0  0  0  0  0  0  0  0  0  0  0  0
   41.9756    0.2198  -34.6778 C   0  0  0  0  0  0  0  0  0  0  0  0
   40.8383   -0.6553  -34.7726 N   0  0  0  0  0  4  0  0  0  0  0  0
   39.6000    0.0469  -34.9946 C   0  0  0  0  0  0  0  0  0  0  0  0
   38.9580    0.5899  -33.7595 C   0  0  0  0  0  0  0  0  0  0  0  0
   37.9991   -0.3804  -33.1013 C   0  0  0  0  0  0  0  0  0  0  0  0
   38.4224   -0.7116  -31.7931 O   0  0  0  0  0  0  0  0  0  0  0  0
   37.5662   -0.7553  -30.7277 C   0  0  0  0  0  0  0  0  0  0  0  0
   37.6193   -1.7742  -29.8130 C   0  0  0  0  0  0  0  0  0  0  0  0
   36.7770   -1.8411  -28.7401 C   0  0  0  0  0  0  0  0  0  0  0  0
   38.5798   -2.7503  -30.0256 O   0  0  0  0  0  0  0  0  0  0  0  0
   38.7968   -3.7246  -29.0235 C   0  0  0  0  0  0  0  0  0  0  0  0
   36.6120    0.2522  -30.5529 C   0  0  0  0  0  0  0  0  0  0  0  0
   35.7531    0.2005  -29.4755 C   0  0  0  0  0  0  0  0  0  0  0  0
   35.8384   -0.8590  -28.5600 C   0  0  0  0  0  0  0  0  0  0  0  0
   34.9799   -0.8669  -27.5249 N   0  0  0  0  0  0  0  0  0  0  0  0
   34.0592    0.0928  -27.3457 C   0  0  0  0  0  0  0  0  0  0  0  0
   34.0028    1.0894  -28.2368 N   0  0  0  0  0  0  0  0  0  0  0  0
   34.8140    1.1867  -29.3011 C   0  0  0  0  0  0  0  0  0  0  0  0
   34.6900    2.2393  -30.2252 N   0  0  0  0  0  0  0  0  0  0  0  0
   33.9118    3.3815  -29.8603 C   0  0  0  0  0  0  0  0  0  0  0  0
   33.8468    3.7643  -28.5537 C   0  0  0  0  0  0  0  0  0  0  0  0
   33.0701    4.8687  -28.1677 C   0  0  0  0  0  0  0  0  0  0  0  0
   32.9906    5.3554  -26.4756 Cl  0  0  0  0  0  0  0  0  0  0  0  0
   32.3584    5.5884  -29.0999 C   0  0  0  0  0  0  0  0  0  0  0  0
   31.6084    6.6461  -28.7602 F   0  0  0  0  0  0  0  0  0  0  0  0
   32.4366    5.1840  -30.4325 C   0  0  0  0  0  0  0  0  0  0  0  0
   33.2002    4.0996  -30.8028 C   0  0  0  0  0  0  0  0  0  0  0  0
 20 19  2  0
 20 21  1  0
 18 13  1  0
 18 17  2  0
 18 19  1  0
 17 16  1  0
 17 22  1  0
 22 21  2  0
 22 23  1  0
 15 14  1  0
 30 28  1  0
 30 31  2  0
 31 24  1  0
 25 24  2  0
 25 26  1  0
 13 12  2  0
 16 11  2  0
  8  7  1  0
  8  9  1  0
  9 10  1  0
  2  1  1  0
  2  3  1  0
  4  3  1  0
  4  5  1  0
  7  6  1  0
  1  6  1  0
  5  6  1  0
 28 26  2  0
 28 29  1  0
 26 27  1  0
 24 23  1  0
 12 11  1  0
 12 14  1  0
 11 10  1  0
M  CHG  1   6   1
M  END
$$$$
