
     RDKit          3D

 31 34  0  0  0  0  0  0  0  0999 V2000
   44.5319  -13.1611   -1.6374 C   0  0  0  0  0  0  0  0  0  0  0  0
   44.3200  -11.8000   -1.0424 C   0  0  0  0  0  0  0  0  0  0  0  0
   44.0264  -11.8846    0.2966 O   0  0  0  0  0  0  0  0  0  0  0  0
   43.5033  -13.1171    0.5990 C   0  0  0  0  0  0  0  0  0  0  0  0
   42.5609  -13.6564   -0.4556 C   0  0  0  0  0  0  0  0  0  0  0  0
   43.2876  -13.9405   -1.6637 N   0  0  0  0  0  4  0  0  0  0  0  0
   42.5841  -13.5400   -2.8556 C   0  0  0  0  0  0  0  0  0  0  0  0
   41.6363  -14.5608   -3.3960 C   0  0  0  0  0  0  0  0  0  0  0  0
   40.3701  -13.9628   -3.9732 C   0  0  0  0  0  0  0  0  0  0  0  0
   40.5999  -13.4174   -5.2577 O   0  0  0  0  0  0  0  0  0  0  0  0
   39.7305  -13.5870   -6.2994 C   0  0  0  0  0  0  0  0  0  0  0  0
   39.4393  -12.5597   -7.1583 C   0  0  0  0  0  0  0  0  0  0  0  0
   38.5758  -12.7027   -8.2067 C   0  0  0  0  0  0  0  0  0  0  0  0
   40.0686  -11.3493   -6.9148 O   0  0  0  0  0  0  0  0  0  0  0  0
   39.8589  -10.2775   -7.8135 C   0  0  0  0  0  0  0  0  0  0  0  0
   39.1180  -14.8271   -6.5072 C   0  0  0  0  0  0  0  0  0  0  0  0
   38.2431  -14.9894   -7.5605 C   0  0  0  0  0  0  0  0  0  0  0  0
   37.9705  -13.9137   -8.4187 C   0  0  0  0  0  0  0  0  0  0  0  0
   37.1108  -14.1196   -9.4321 N   0  0  0  0  0  0  0  0  0  0  0  0
   36.5158  -15.3038   -9.6424 C   0  0  0  0  0  0  0  0  0  0  0  0
   36.7961  -16.3099   -8.8058 N   0  0  0  0  0  0  0  0  0  0  0  0
   37.6388  -16.2048   -7.7670 C   0  0  0  0  0  0  0  0  0  0  0  0
   37.8729  -17.2860   -6.8990 N   0  0  0  0  0  0  0  0  0  0  0  0
   37.3620  -18.5725   -7.2560 C   0  0  0  0  0  0  0  0  0  0  0  0
   37.5382  -19.0404   -8.5240 C   0  0  0  0  0  0  0  0  0  0  0  0
   37.0250  -20.2908   -8.9049 C   0  0  0  0  0  0  0  0  0  0  0  0
   37.2561  -20.8872  -10.5472 Cl  0  0  0  0  0  0  0  0  0  0  0  0
   36.3335  -21.0706   -8.0063 C   0  0  0  0  0  0  0  0  0  0  0  0
   35.8320  -22.2675   -8.3421 F   0  0  0  0  0  0  0  0  0  0  0  0
   36.1629  -20.5775   -6.7128 C   0  0  0  0  0  0  0  0  0  0  0  0
   36.6691  -19.3501   -6.3473 C   0  0  0  0  0  0  0  0  0  0  0  0
 20 19  2  0
 20 21  1  0
 18 13  1  0
 18 17  2  0
 18 19  1  0
 17 16  1  0
 17 22  1  0
 22 21  2  0
 22 23  1  0
 15 14  1  0
 30 28  1  0
 30 31  2  0
 31 24  1  0
 25 24  2  0
 25 26  1  0
 13 12  2  0
 16 11  2  0
  8  7  1  0
  8  9  1  0
  9 10  1  0
  2  1  1  0
  2  3  1  0
  4  3  1  0
  4  5  1  0
  7  6  1  0
  1  6  1  0
  5  6  1  0
 28 26  2  0
 28 29  1  0
 26 27  1  0
 24 23  1  0
 12 11  1  0
 12 14  1  0
 11 10  1  0
M  CHG  1   6   1
M  END
$$$$
