@<TRIPOS>MOLECULE
IRE.pdb
56 59 1 0 0
SMALL
NO_CHARGES


@<TRIPOS>ATOM
      1 CAO         3.4040   46.1170   14.5070 C.3       1 IRE    0.0000
      2 CAL         4.3860   44.9380   14.3750 C.3       1 IRE    0.0000
      3 OAU         3.6900   43.6880   14.5540 O.3       1 IRE    0.0000
      4 CAM         3.0800   43.4440   15.8490 C.3       1 IRE    0.0000
      5 CAP         2.7940   44.7300   16.6440 C.3       1 IRE    0.0000
      6 NBE         2.5950   45.8870   15.7230 N.4       1 IRE    0.0000
      7 CAN         1.5560   46.8550   16.0410 C.3       1 IRE    0.0000
      8 CAJ         1.9860   47.4510   17.3890 C.3       1 IRE    0.0000
      9 CAK         0.7930   47.7880   18.2910 C.3       1 IRE    0.0000
     10 OAV        -0.0010   48.8270   17.6860 O.3       1 IRE    0.0000
     11 CBA        -0.5460   49.8840   18.3700 C.ar      1 IRE    0.0000
     12 CAZ        -1.1750   50.8290   17.5810 C.ar      1 IRE    0.0000
     13 CAH        -1.7490   51.9430   18.1780 C.ar      1 IRE    0.0000
     14 OAT        -1.2170   50.6790   16.2200 O.3       1 IRE    0.0000
     15 CAA        -2.3380   51.2600   15.5080 C.3       1 IRE    0.0000
     16 CAI        -0.5160   50.0310   19.7780 C.ar      1 IRE    0.0000
     17 C5         -1.1300   51.1410   20.3560 C.ar      1 IRE    0.0000
     18 C4         -1.7470   52.0880   19.5480 C.ar      1 IRE    0.0000
     19 N3         -2.3440   53.1660   20.0860 N.ar      1 IRE    0.0000
     20 C2         -2.3130   53.3880   21.3930 C.ar      1 IRE    0.0000
     21 N1         -1.7230   52.5050   22.1960 N.ar      1 IRE    0.0000
     22 C6         -1.1370   51.3830   21.7250 C.ar      1 IRE    0.0000
     23 NAS        -0.5500   50.5160   22.5680 N.pl3     1 IRE    0.0000
     24 CAY        -0.7890   50.3540   23.9050 C.ar      1 IRE    0.0000
     25 CAG        -2.0680   50.5030   24.4450 C.ar      1 IRE    0.0000
     26 CAX        -2.2860   50.3360   25.8070 C.ar      1 IRE    0.0000
     27 CL         -3.8770   50.5280   26.6050 Cl        1 IRE    0.0000
     28 CAW        -1.2480   49.9960   26.6110 C.ar      1 IRE    0.0000
     29 FAB        -1.5490   49.8410   27.9240 F         1 IRE    0.0000
     30 CAD         0.0430   49.8020   26.0870 C.ar      1 IRE    0.0000
     31 CAE         0.2670   49.9660   24.7340 C.ar      1 IRE    0.0000
     32 HAO2        2.7559   46.1612   13.6317 H         1 IRE    0.0000
     33 HAO3        3.9585   47.0504   14.6034 H         1 IRE    0.0000
     34 HAL2        5.1625   45.0296   15.1344 H         1 IRE    0.0000
     35 HAL3        4.8438   44.9582   13.3860 H         1 IRE    0.0000
     36 HAM2        2.1381   42.9181   15.6931 H         1 IRE    0.0000
     37 HAM3        3.7438   42.8089   16.4357 H         1 IRE    0.0000
     38 HAP2        1.8927   44.5886   17.2404 H         1 IRE    0.0000
     39 HAP3        3.6345   44.9379   17.3062 H         1 IRE    0.0000
     40 HBE         1.9323   45.3480   15.1840 H         1 IRE    0.0000
     41 HAN2        0.5864   46.3647   16.1283 H         1 IRE    0.0000
     42 HAN3        1.5185   47.6331   15.2786 H         1 IRE    0.0000
     43 HAJ2        2.6199   46.7289   17.9037 H         1 IRE    0.0000
     44 HAJ3        2.5600   48.3596   17.2072 H         1 IRE    0.0000
     45 HAK2        1.1576   48.1297   19.2597 H         1 IRE    0.0000
     46 HAK3        0.1799   46.8973   18.4284 H         1 IRE    0.0000
     47 HAH        -2.2024   52.7049   17.5613 H         1 IRE    0.0000
     48 HAI        -0.0244   49.2937   20.3953 H         1 IRE    0.0000
     49 H2         -2.7636   54.2795   21.8035 H         1 IRE    0.0000
     50 HAS         0.1520   49.9114   22.1658 H         1 IRE    0.0000
     51 HAG        -2.8961   50.7505   23.7975 H         1 IRE    0.0000
     52 HAD         0.8568   49.5256   26.7409 H         1 IRE    0.0000
     53 HAE         1.2500   49.7958   24.3202 H         1 IRE    0.0000
     54 HAA1       -2.3762   50.8549   14.4968 H         1 IRE    0.0000
     55 HAA2       -3.2639   51.0197   16.0305 H         1 IRE    0.0000
     56 HAA3       -2.2174   52.3423   15.4615 H         1 IRE    0.0000
@<TRIPOS>BOND
     1   20   19 ar
     2   20   21 ar
     3   18   13 ar
     4   18   17 ar
     5   18   19 ar
     6   17   16 ar
     7   17   22 ar
     8   22   21 ar
     9   22   23 1
    10   15   14 1
    11   30   28 ar
    12   30   31 ar
    13   31   24 ar
    14   25   24 ar
    15   25   26 ar
    16   13   12 ar
    17   16   11 ar
    18    8    7 1
    19    8    9 1
    20    9   10 1
    21    2    1 1
    22    2    3 1
    23    4    3 1
    24    4    5 1
    25    7    6 1
    26    1    6 1
    27    5    6 1
    28   28   26 ar
    29   28   29 1
    30   26   27 1
    31   24   23 1
    32   12   11 ar
    33   12   14 1
    34   11   10 1
    35   32    1 1
    36   33    1 1
    37   34    2 1
    38   35    2 1
    39   36    4 1
    40   37    4 1
    41   38    5 1
    42   39    5 1
    43   40    6 1
    44   41    7 1
    45   42    7 1
    46   43    8 1
    47   44    8 1
    48   45    9 1
    49   46    9 1
    50   47   13 1
    51   48   16 1
    52   49   20 1
    53   50   23 1
    54   51   25 1
    55   52   30 1
    56   53   31 1
    57   54   15 1
    58   55   15 1
    59   56   15 1
@<TRIPOS>SUBSTRUCTURE
     1 IRE     1 RESIDUE           4 A     IRE     0 ROOT

