
     RDKit          3D

 31 34  0  0  0  0  0  0  0  0999 V2000
    7.4535    6.3928    9.6257 C   0  0  0  0  0  0  0  0  0  0  0  0
    6.5395    6.9695    8.5847 C   0  0  0  0  0  0  0  0  0  0  0  0
    5.2222    6.7489    8.9046 O   0  0  0  0  0  0  0  0  0  0  0  0
    5.1035    5.6678    9.7420 C   0  0  0  0  0  0  0  0  0  0  0  0
    6.0398    4.5275    9.4043 C   0  0  0  0  0  0  0  0  0  0  0  0
    7.4018    4.9253    9.6387 N   0  0  0  0  0  4  0  0  0  0  0  0
    8.3074    4.4791    8.6108 C   0  0  0  0  0  0  0  0  0  0  0  0
    8.6032    3.0146    8.6294 C   0  0  0  0  0  0  0  0  0  0  0  0
    9.6455    2.5965    7.6132 C   0  0  0  0  0  0  0  0  0  0  0  0
   10.9079    2.4066    8.2220 O   0  0  0  0  0  0  0  0  0  0  0  0
   11.8096    1.4782    7.7806 C   0  0  0  0  0  0  0  0  0  0  0  0
   13.1295    1.7981    7.5983 C   0  0  0  0  0  0  0  0  0  0  0  0
   14.0504    0.8899    7.1597 C   0  0  0  0  0  0  0  0  0  0  0  0
   13.4972    3.1036    7.8827 O   0  0  0  0  0  0  0  0  0  0  0  0
   14.8485    3.4849    7.7130 C   0  0  0  0  0  0  0  0  0  0  0  0
   11.3934    0.1715    7.5058 C   0  0  0  0  0  0  0  0  0  0  0  0
   12.3094   -0.7584    7.0617 C   0  0  0  0  0  0  0  0  0  0  0  0
   13.6526   -0.3929    6.8875 C   0  0  0  0  0  0  0  0  0  0  0  0
   14.5094   -1.3338    6.4527 N   0  0  0  0  0  0  0  0  0  0  0  0
   14.1234   -2.5907    6.1846 C   0  0  0  0  0  0  0  0  0  0  0  0
   12.8353   -2.9077    6.3602 N   0  0  0  0  0  0  0  0  0  0  0  0
   11.9047   -2.0418    6.7895 C   0  0  0  0  0  0  0  0  0  0  0  0
   10.5571   -2.4197    6.9257 N   0  0  0  0  0  0  0  0  0  0  0  0
   10.2423   -3.8116    7.0086 C   0  0  0  0  0  0  0  0  0  0  0  0
   11.0625   -4.6486    7.7047 C   0  0  0  0  0  0  0  0  0  0  0  0
   10.7869   -6.0235    7.7807 C   0  0  0  0  0  0  0  0  0  0  0  0
   11.8540   -7.0987    8.6816 Cl  0  0  0  0  0  0  0  0  0  0  0  0
    9.6830   -6.5552    7.1544 C   0  0  0  0  0  0  0  0  0  0  0  0
    9.3956   -7.8633    7.2093 F   0  0  0  0  0  0  0  0  0  0  0  0
    8.8536   -5.6849    6.4472 C   0  0  0  0  0  0  0  0  0  0  0  0
    9.1310   -4.3379    6.3773 C   0  0  0  0  0  0  0  0  0  0  0  0
 20 19  2  0
 20 21  1  0
 18 13  1  0
 18 17  2  0
 18 19  1  0
 17 16  1  0
 17 22  1  0
 22 21  2  0
 22 23  1  0
 15 14  1  0
 30 28  1  0
 30 31  2  0
 31 24  1  0
 25 24  2  0
 25 26  1  0
 13 12  2  0
 16 11  2  0
  8  7  1  0
  8  9  1  0
  9 10  1  0
  2  1  1  0
  2  3  1  0
  4  3  1  0
  4  5  1  0
  7  6  1  0
  1  6  1  0
  5  6  1  0
 28 26  2  0
 28 29  1  0
 26 27  1  0
 24 23  1  0
 12 11  1  0
 12 14  1  0
 11 10  1  0
M  CHG  1   6   1
M  END
$$$$
