
     RDKit          3D

 31 34  0  0  0  0  0  0  0  0999 V2000
    5.6334    3.4808   10.4146 C   0  0  0  0  0  0  0  0  0  0  0  0
    5.5774    4.6888   11.3029 C   0  0  0  0  0  0  0  0  0  0  0  0
    4.8100    5.6807   10.7429 O   0  0  0  0  0  0  0  0  0  0  0  0
    4.7495    5.5324    9.3797 C   0  0  0  0  0  0  0  0  0  0  0  0
    6.0553    5.0909    8.7545 C   0  0  0  0  0  0  0  0  0  0  0  0
    6.3734    3.7532    9.1759 N   0  0  0  0  0  4  0  0  0  0  0  0
    7.7682    3.5746    9.4899 C   0  0  0  0  0  0  0  0  0  0  0  0
    8.6859    3.6187    8.3115 C   0  0  0  0  0  0  0  0  0  0  0  0
    9.4217    2.3170    8.0706 C   0  0  0  0  0  0  0  0  0  0  0  0
   10.8036    2.4518    8.3398 O   0  0  0  0  0  0  0  0  0  0  0  0
   11.7326    1.5454    7.9096 C   0  0  0  0  0  0  0  0  0  0  0  0
   13.0314    1.9138    7.6748 C   0  0  0  0  0  0  0  0  0  0  0  0
   13.9788    1.0285    7.2459 C   0  0  0  0  0  0  0  0  0  0  0  0
   13.3489    3.2447    7.8947 O   0  0  0  0  0  0  0  0  0  0  0  0
   14.6815    3.6719    7.6894 C   0  0  0  0  0  0  0  0  0  0  0  0
   11.3670    0.2116    7.7007 C   0  0  0  0  0  0  0  0  0  0  0  0
   12.3104   -0.6958    7.2674 C   0  0  0  0  0  0  0  0  0  0  0  0
   13.6306   -0.2804    7.0382 C   0  0  0  0  0  0  0  0  0  0  0  0
   14.5156   -1.2010    6.6164 N   0  0  0  0  0  0  0  0  0  0  0  0
   14.1781   -2.4835    6.4113 C   0  0  0  0  0  0  0  0  0  0  0  0
   12.9107   -2.8480    6.6384 N   0  0  0  0  0  0  0  0  0  0  0  0
   11.9552   -2.0057    7.0599 C   0  0  0  0  0  0  0  0  0  0  0  0
   10.6301   -2.4352    7.2519 N   0  0  0  0  0  0  0  0  0  0  0  0
   10.3494   -3.8355    7.1902 C   0  0  0  0  0  0  0  0  0  0  0  0
   11.1714   -4.7171    7.8265 C   0  0  0  0  0  0  0  0  0  0  0  0
   10.9297   -6.0989    7.7608 C   0  0  0  0  0  0  0  0  0  0  0  0
   11.9989   -7.2316    8.5852 Cl  0  0  0  0  0  0  0  0  0  0  0  0
    9.8577   -6.5925    7.0530 C   0  0  0  0  0  0  0  0  0  0  0  0
    9.6031   -7.9060    6.9724 F   0  0  0  0  0  0  0  0  0  0  0  0
    9.0260   -5.6768    6.4086 C   0  0  0  0  0  0  0  0  0  0  0  0
    9.2702   -4.3233    6.4777 C   0  0  0  0  0  0  0  0  0  0  0  0
 20 19  2  0
 20 21  1  0
 18 13  1  0
 18 17  2  0
 18 19  1  0
 17 16  1  0
 17 22  1  0
 22 21  2  0
 22 23  1  0
 15 14  1  0
 30 28  1  0
 30 31  2  0
 31 24  1  0
 25 24  2  0
 25 26  1  0
 13 12  2  0
 16 11  2  0
  8  7  1  0
  8  9  1  0
  9 10  1  0
  2  1  1  0
  2  3  1  0
  4  3  1  0
  4  5  1  0
  7  6  1  0
  1  6  1  0
  5  6  1  0
 28 26  2  0
 28 29  1  0
 26 27  1  0
 24 23  1  0
 12 11  1  0
 12 14  1  0
 11 10  1  0
M  CHG  1   6   1
M  END
$$$$
