
     RDKit          3D

 31 34  0  0  0  0  0  0  0  0999 V2000
    5.2183    2.2826    7.9563 C   0  0  0  0  0  0  0  0  0  0  0  0
    4.3146    2.8948    8.9860 C   0  0  0  0  0  0  0  0  0  0  0  0
    3.9261    4.1589    8.6156 O   0  0  0  0  0  0  0  0  0  0  0  0
    4.8299    4.7039    7.7379 C   0  0  0  0  0  0  0  0  0  0  0  0
    6.2717    4.3814    8.0668 C   0  0  0  0  0  0  0  0  0  0  0  0
    6.5120    2.9743    7.8910 N   0  0  0  0  0  4  0  0  0  0  0  0
    7.3288    2.4046    8.9322 C   0  0  0  0  0  0  0  0  0  0  0  0
    8.7797    2.7522    8.8505 C   0  0  0  0  0  0  0  0  0  0  0  0
    9.6788    1.5482    8.6602 C   0  0  0  0  0  0  0  0  0  0  0  0
   10.7583    1.8460    7.7963 O   0  0  0  0  0  0  0  0  0  0  0  0
   11.7589    0.9534    7.5282 C   0  0  0  0  0  0  0  0  0  0  0  0
   13.0595    1.3619    7.3900 C   0  0  0  0  0  0  0  0  0  0  0  0
   14.0773    0.4912    7.1234 C   0  0  0  0  0  0  0  0  0  0  0  0
   13.3031    2.7184    7.5347 O   0  0  0  0  0  0  0  0  0  0  0  0
   14.6422    3.1679    7.6079 C   0  0  0  0  0  0  0  0  0  0  0  0
   11.4664   -0.4074    7.3901 C   0  0  0  0  0  0  0  0  0  0  0  0
   12.4815   -1.3007    7.1205 C   0  0  0  0  0  0  0  0  0  0  0  0
   13.8012   -0.8440    6.9862 C   0  0  0  0  0  0  0  0  0  0  0  0
   14.7576   -1.7522    6.7233 N   0  0  0  0  0  0  0  0  0  0  0  0
   14.4908   -3.0602    6.5877 C   0  0  0  0  0  0  0  0  0  0  0  0
   13.2220   -3.4641    6.7209 N   0  0  0  0  0  0  0  0  0  0  0  0
   12.1984   -2.6371    6.9828 C   0  0  0  0  0  0  0  0  0  0  0  0
   10.8782   -3.1108    7.0809 N   0  0  0  0  0  0  0  0  0  0  0  0
   10.6559   -4.5229    7.0719 C   0  0  0  0  0  0  0  0  0  0  0  0
   11.0398   -5.2595    5.9912 C   0  0  0  0  0  0  0  0  0  0  0  0
   10.8108   -6.6444    5.9492 C   0  0  0  0  0  0  0  0  0  0  0  0
   11.3092   -7.5887    4.5470 Cl  0  0  0  0  0  0  0  0  0  0  0  0
   10.1942   -7.2875    6.9979 C   0  0  0  0  0  0  0  0  0  0  0  0
    9.9622   -8.6075    6.9849 F   0  0  0  0  0  0  0  0  0  0  0  0
    9.8085   -6.5192    8.0963 C   0  0  0  0  0  0  0  0  0  0  0  0
   10.0364   -5.1615    8.1296 C   0  0  0  0  0  0  0  0  0  0  0  0
 20 19  2  0
 20 21  1  0
 18 13  1  0
 18 17  2  0
 18 19  1  0
 17 16  1  0
 17 22  1  0
 22 21  2  0
 22 23  1  0
 15 14  1  0
 30 28  1  0
 30 31  2  0
 31 24  1  0
 25 24  2  0
 25 26  1  0
 13 12  2  0
 16 11  2  0
  8  7  1  0
  8  9  1  0
  9 10  1  0
  2  1  1  0
  2  3  1  0
  4  3  1  0
  4  5  1  0
  7  6  1  0
  1  6  1  0
  5  6  1  0
 28 26  2  0
 28 29  1  0
 26 27  1  0
 24 23  1  0
 12 11  1  0
 12 14  1  0
 11 10  1  0
M  CHG  1   6   1
M  END
$$$$
