
     RDKit          3D

 31 34  0  0  0  0  0  0  0  0999 V2000
    5.6562    3.8837    8.8821 C   0  0  0  0  0  0  0  0  0  0  0  0
    4.9181    4.4046   10.0801 C   0  0  0  0  0  0  0  0  0  0  0  0
    4.5635    5.7206    9.9102 O   0  0  0  0  0  0  0  0  0  0  0  0
    5.3877    6.3283    8.9962 C   0  0  0  0  0  0  0  0  0  0  0  0
    6.8368    5.9045    9.1036 C   0  0  0  0  0  0  0  0  0  0  0  0
    6.9715    4.5203    8.7372 N   0  0  0  0  0  4  0  0  0  0  0  0
    7.8707    3.7919    9.5955 C   0  0  0  0  0  0  0  0  0  0  0  0
    8.3573    2.4947    9.0359 C   0  0  0  0  0  0  0  0  0  0  0  0
    9.8390    2.2638    9.2484 C   0  0  0  0  0  0  0  0  0  0  0  0
   10.5536    2.3666    8.0322 O   0  0  0  0  0  0  0  0  0  0  0  0
   11.5417    1.4900    7.6787 C   0  0  0  0  0  0  0  0  0  0  0  0
   12.8247    1.9159    7.4545 C   0  0  0  0  0  0  0  0  0  0  0  0
   13.8299    1.0614    7.1016 C   0  0  0  0  0  0  0  0  0  0  0  0
   13.0636    3.2728    7.6036 O   0  0  0  0  0  0  0  0  0  0  0  0
   14.3765    3.7063    7.9015 C   0  0  0  0  0  0  0  0  0  0  0  0
   11.2545    0.1282    7.5396 C   0  0  0  0  0  0  0  0  0  0  0  0
   12.2571   -0.7488    7.1835 C   0  0  0  0  0  0  0  0  0  0  0  0
   13.5588   -0.2746    6.9626 C   0  0  0  0  0  0  0  0  0  0  0  0
   14.5034   -1.1673    6.6173 N   0  0  0  0  0  0  0  0  0  0  0  0
   14.2415   -2.4762    6.4797 C   0  0  0  0  0  0  0  0  0  0  0  0
   12.9899   -2.8969    6.6967 N   0  0  0  0  0  0  0  0  0  0  0  0
   11.9790   -2.0861    7.0446 C   0  0  0  0  0  0  0  0  0  0  0  0
   10.6742   -2.5767    7.2290 N   0  0  0  0  0  0  0  0  0  0  0  0
   10.4512   -3.9845    7.1197 C   0  0  0  0  0  0  0  0  0  0  0  0
   11.3110   -4.8527    7.7237 C   0  0  0  0  0  0  0  0  0  0  0  0
   11.1261   -6.2403    7.6109 C   0  0  0  0  0  0  0  0  0  0  0  0
   12.2438   -7.3556    8.3938 Cl  0  0  0  0  0  0  0  0  0  0  0  0
   10.0731   -6.7531    6.8886 C   0  0  0  0  0  0  0  0  0  0  0  0
    9.8725   -8.0724    6.7633 F   0  0  0  0  0  0  0  0  0  0  0  0
    9.2022   -5.8510    6.2776 C   0  0  0  0  0  0  0  0  0  0  0  0
    9.3906   -4.4917    6.3928 C   0  0  0  0  0  0  0  0  0  0  0  0
 20 19  2  0
 20 21  1  0
 18 13  1  0
 18 17  2  0
 18 19  1  0
 17 16  1  0
 17 22  1  0
 22 21  2  0
 22 23  1  0
 15 14  1  0
 30 28  1  0
 30 31  2  0
 31 24  1  0
 25 24  2  0
 25 26  1  0
 13 12  2  0
 16 11  2  0
  8  7  1  0
  8  9  1  0
  9 10  1  0
  2  1  1  0
  2  3  1  0
  4  3  1  0
  4  5  1  0
  7  6  1  0
  1  6  1  0
  5  6  1  0
 28 26  2  0
 28 29  1  0
 26 27  1  0
 24 23  1  0
 12 11  1  0
 12 14  1  0
 11 10  1  0
M  CHG  1   6   1
M  END
$$$$
