
     RDKit          3D

 31 34  0  0  0  0  0  0  0  0999 V2000
    7.1012    5.4713   10.5132 C   0  0  0  0  0  0  0  0  0  0  0  0
    7.4430    6.9202   10.3251 C   0  0  0  0  0  0  0  0  0  0  0  0
    6.4689    7.5701    9.6075 O   0  0  0  0  0  0  0  0  0  0  0  0
    5.7612    6.6801    8.8385 C   0  0  0  0  0  0  0  0  0  0  0  0
    6.6151    5.5962    8.2165 C   0  0  0  0  0  0  0  0  0  0  0  0
    7.1404    4.7362    9.2426 N   0  0  0  0  0  4  0  0  0  0  0  0
    8.5179    4.3730    9.0272 C   0  0  0  0  0  0  0  0  0  0  0  0
    8.7300    3.2936    8.0159 C   0  0  0  0  0  0  0  0  0  0  0  0
    9.4479    2.0804    8.5699 C   0  0  0  0  0  0  0  0  0  0  0  0
   10.8483    2.2779    8.5893 O   0  0  0  0  0  0  0  0  0  0  0  0
   11.7257    1.4091    8.0018 C   0  0  0  0  0  0  0  0  0  0  0  0
   12.9869    1.8057    7.6414 C   0  0  0  0  0  0  0  0  0  0  0  0
   13.8826    0.9582    7.0545 C   0  0  0  0  0  0  0  0  0  0  0  0
   13.3212    3.1251    7.9021 O   0  0  0  0  0  0  0  0  0  0  0  0
   14.6687    3.5296    7.7574 C   0  0  0  0  0  0  0  0  0  0  0  0
   11.3448    0.0856    7.7574 C   0  0  0  0  0  0  0  0  0  0  0  0
   12.2362   -0.7838    7.1651 C   0  0  0  0  0  0  0  0  0  0  0  0
   13.5191   -0.3403    6.8106 C   0  0  0  0  0  0  0  0  0  0  0  0
   14.3537   -1.2243    6.2357 N   0  0  0  0  0  0  0  0  0  0  0  0
   14.0010   -2.4964    5.9949 C   0  0  0  0  0  0  0  0  0  0  0  0
   12.7702   -2.8883    6.3441 N   0  0  0  0  0  0  0  0  0  0  0  0
   11.8657   -2.0833    6.9222 C   0  0  0  0  0  0  0  0  0  0  0  0
   10.5738   -2.5387    7.2395 N   0  0  0  0  0  0  0  0  0  0  0  0
   10.2926   -3.9353    7.1209 C   0  0  0  0  0  0  0  0  0  0  0  0
   11.1613   -4.8454    7.6452 C   0  0  0  0  0  0  0  0  0  0  0  0
   10.9187   -6.2229    7.5206 C   0  0  0  0  0  0  0  0  0  0  0  0
   12.0483   -7.3926    8.2003 Cl  0  0  0  0  0  0  0  0  0  0  0  0
    9.7988   -6.6836    6.8669 C   0  0  0  0  0  0  0  0  0  0  0  0
    9.5421   -7.9923    6.7323 F   0  0  0  0  0  0  0  0  0  0  0  0
    8.9198   -5.7391    6.3371 C   0  0  0  0  0  0  0  0  0  0  0  0
    9.1651   -4.3900    6.4633 C   0  0  0  0  0  0  0  0  0  0  0  0
 20 19  2  0
 20 21  1  0
 18 13  1  0
 18 17  2  0
 18 19  1  0
 17 16  1  0
 17 22  1  0
 22 21  2  0
 22 23  1  0
 15 14  1  0
 30 28  1  0
 30 31  2  0
 31 24  1  0
 25 24  2  0
 25 26  1  0
 13 12  2  0
 16 11  2  0
  8  7  1  0
  8  9  1  0
  9 10  1  0
  2  1  1  0
  2  3  1  0
  4  3  1  0
  4  5  1  0
  7  6  1  0
  1  6  1  0
  5  6  1  0
 28 26  2  0
 28 29  1  0
 26 27  1  0
 24 23  1  0
 12 11  1  0
 12 14  1  0
 11 10  1  0
M  CHG  1   6   1
M  END
$$$$
