
     RDKit          3D

 31 34  0  0  0  0  0  0  0  0999 V2000
    7.4624    6.0965    9.0884 C   0  0  0  0  0  0  0  0  0  0  0  0
    7.2705    6.7432    7.7480 C   0  0  0  0  0  0  0  0  0  0  0  0
    5.9752    6.6061    7.3125 O   0  0  0  0  0  0  0  0  0  0  0  0
    5.3762    5.5263    7.9119 C   0  0  0  0  0  0  0  0  0  0  0  0
    6.2906    4.3306    8.0708 C   0  0  0  0  0  0  0  0  0  0  0  0
    7.3384    4.6355    9.0076 N   0  0  0  0  0  4  0  0  0  0  0  0
    8.6278    4.1418    8.5959 C   0  0  0  0  0  0  0  0  0  0  0  0
    8.8884    2.7106    8.9371 C   0  0  0  0  0  0  0  0  0  0  0  0
    9.5805    1.9427    7.8301 C   0  0  0  0  0  0  0  0  0  0  0  0
   10.9701    2.2059    7.8149 O   0  0  0  0  0  0  0  0  0  0  0  0
   11.8939    1.2794    7.4175 C   0  0  0  0  0  0  0  0  0  0  0  0
   13.1976    1.6294    7.1820 C   0  0  0  0  0  0  0  0  0  0  0  0
   14.1399    0.7238    6.7855 C   0  0  0  0  0  0  0  0  0  0  0  0
   13.5256    2.9631    7.3664 O   0  0  0  0  0  0  0  0  0  0  0  0
   14.8863    3.3167    7.5214 C   0  0  0  0  0  0  0  0  0  0  0  0
   11.5176   -0.0565    7.2439 C   0  0  0  0  0  0  0  0  0  0  0  0
   12.4557   -0.9843    6.8435 C   0  0  0  0  0  0  0  0  0  0  0  0
   13.7813   -0.5874    6.6125 C   0  0  0  0  0  0  0  0  0  0  0  0
   14.6608   -1.5275    6.2235 N   0  0  0  0  0  0  0  0  0  0  0  0
   14.3131   -2.8122    6.0524 C   0  0  0  0  0  0  0  0  0  0  0  0
   13.0409   -3.1588    6.2803 N   0  0  0  0  0  0  0  0  0  0  0  0
   12.0901   -2.2963    6.6706 C   0  0  0  0  0  0  0  0  0  0  0  0
   10.7598   -2.7083    6.8648 N   0  0  0  0  0  0  0  0  0  0  0  0
   10.4523   -4.1001    6.7568 C   0  0  0  0  0  0  0  0  0  0  0  0
   11.1796   -5.0089    7.4661 C   0  0  0  0  0  0  0  0  0  0  0  0
   10.9116   -6.3832    7.3584 C   0  0  0  0  0  0  0  0  0  0  0  0
   11.8583   -7.5512    8.2780 Cl  0  0  0  0  0  0  0  0  0  0  0  0
    9.9092   -6.8419    6.5349 C   0  0  0  0  0  0  0  0  0  0  0  0
    9.6318   -8.1475    6.4118 F   0  0  0  0  0  0  0  0  0  0  0  0
    9.1740   -5.8988    5.8169 C   0  0  0  0  0  0  0  0  0  0  0  0
    9.4432   -4.5529    5.9279 C   0  0  0  0  0  0  0  0  0  0  0  0
 20 19  2  0
 20 21  1  0
 18 13  1  0
 18 17  2  0
 18 19  1  0
 17 16  1  0
 17 22  1  0
 22 21  2  0
 22 23  1  0
 15 14  1  0
 30 28  1  0
 30 31  2  0
 31 24  1  0
 25 24  2  0
 25 26  1  0
 13 12  2  0
 16 11  2  0
  8  7  1  0
  8  9  1  0
  9 10  1  0
  2  1  1  0
  2  3  1  0
  4  3  1  0
  4  5  1  0
  7  6  1  0
  1  6  1  0
  5  6  1  0
 28 26  2  0
 28 29  1  0
 26 27  1  0
 24 23  1  0
 12 11  1  0
 12 14  1  0
 11 10  1  0
M  CHG  1   6   1
M  END
$$$$
