
     RDKit          3D

 31 34  0  0  0  0  0  0  0  0999 V2000
    6.6651    3.8732   10.5347 C   0  0  0  0  0  0  0  0  0  0  0  0
    7.0102    4.8003   11.6630 C   0  0  0  0  0  0  0  0  0  0  0  0
    6.4304    6.0328   11.4867 O   0  0  0  0  0  0  0  0  0  0  0  0
    6.1595    6.2533   10.1592 C   0  0  0  0  0  0  0  0  0  0  0  0
    7.2325    5.7400    9.2232 C   0  0  0  0  0  0  0  0  0  0  0  0
    7.2803    4.3034    9.2727 N   0  0  0  0  0  4  0  0  0  0  0  0
    8.6231    3.7811    9.2780 C   0  0  0  0  0  0  0  0  0  0  0  0
    9.3365    3.8746    7.9684 C   0  0  0  0  0  0  0  0  0  0  0  0
   10.0050    2.5809    7.5518 C   0  0  0  0  0  0  0  0  0  0  0  0
   11.2933    2.4624    8.1235 O   0  0  0  0  0  0  0  0  0  0  0  0
   12.1797    1.4892    7.7535 C   0  0  0  0  0  0  0  0  0  0  0  0
   13.5042    1.7736    7.5470 C   0  0  0  0  0  0  0  0  0  0  0  0
   14.4101    0.8204    7.1783 C   0  0  0  0  0  0  0  0  0  0  0  0
   13.8926    3.0910    7.7313 O   0  0  0  0  0  0  0  0  0  0  0  0
   15.2495    3.4371    7.5327 C   0  0  0  0  0  0  0  0  0  0  0  0
   11.7428    0.1720    7.5789 C   0  0  0  0  0  0  0  0  0  0  0  0
   12.6436   -0.8031    7.2064 C   0  0  0  0  0  0  0  0  0  0  0  0
   13.9920   -0.4729    7.0044 C   0  0  0  0  0  0  0  0  0  0  0  0
   14.8334   -1.4574    6.6420 N   0  0  0  0  0  0  0  0  0  0  0  0
   14.4274   -2.7249    6.4703 C   0  0  0  0  0  0  0  0  0  0  0  0
   13.1348   -3.0075    6.6699 N   0  0  0  0  0  0  0  0  0  0  0  0
   12.2184   -2.0970    7.0325 C   0  0  0  0  0  0  0  0  0  0  0  0
   10.8654   -2.4423    7.1975 N   0  0  0  0  0  0  0  0  0  0  0  0
   10.4974   -3.8215    7.1212 C   0  0  0  0  0  0  0  0  0  0  0  0
   11.2546   -4.7582    7.7592 C   0  0  0  0  0  0  0  0  0  0  0  0
   10.9267   -6.1213    7.6793 C   0  0  0  0  0  0  0  0  0  0  0  0
   11.9124   -7.3258    8.5063 Cl  0  0  0  0  0  0  0  0  0  0  0  0
    9.8340   -6.5407    6.9556 C   0  0  0  0  0  0  0  0  0  0  0  0
    9.4978   -7.8348    6.8613 F   0  0  0  0  0  0  0  0  0  0  0  0
    9.0694   -5.5693    6.3096 C   0  0  0  0  0  0  0  0  0  0  0  0
    9.3979   -4.2346    6.3926 C   0  0  0  0  0  0  0  0  0  0  0  0
 20 19  2  0
 20 21  1  0
 18 13  1  0
 18 17  2  0
 18 19  1  0
 17 16  1  0
 17 22  1  0
 22 21  2  0
 22 23  1  0
 15 14  1  0
 30 28  1  0
 30 31  2  0
 31 24  1  0
 25 24  2  0
 25 26  1  0
 13 12  2  0
 16 11  2  0
  8  7  1  0
  8  9  1  0
  9 10  1  0
  2  1  1  0
  2  3  1  0
  4  3  1  0
  4  5  1  0
  7  6  1  0
  1  6  1  0
  5  6  1  0
 28 26  2  0
 28 29  1  0
 26 27  1  0
 24 23  1  0
 12 11  1  0
 12 14  1  0
 11 10  1  0
M  CHG  1   6   1
M  END
$$$$
