
     RDKit          3D

 31 34  0  0  0  0  0  0  0  0999 V2000
    7.9411    6.3304    9.4883 C   0  0  0  0  0  0  0  0  0  0  0  0
    7.7246    7.1745    8.2668 C   0  0  0  0  0  0  0  0  0  0  0  0
    6.3866    7.3076    7.9870 O   0  0  0  0  0  0  0  0  0  0  0  0
    5.6743    6.2671    8.5295 C   0  0  0  0  0  0  0  0  0  0  0  0
    6.3762    4.9297    8.4319 C   0  0  0  0  0  0  0  0  0  0  0  0
    7.5546    4.9328    9.2564 N   0  0  0  0  0  4  0  0  0  0  0  0
    8.6863    4.2984    8.6297 C   0  0  0  0  0  0  0  0  0  0  0  0
    8.6158    2.8069    8.5727 C   0  0  0  0  0  0  0  0  0  0  0  0
    9.9621    2.1326    8.7360 C   0  0  0  0  0  0  0  0  0  0  0  0
   10.7437    2.2579    7.5639 O   0  0  0  0  0  0  0  0  0  0  0  0
   11.7144    1.3572    7.2225 C   0  0  0  0  0  0  0  0  0  0  0  0
   13.0151    1.7474    7.0393 C   0  0  0  0  0  0  0  0  0  0  0  0
   14.0035    0.8683    6.6994 C   0  0  0  0  0  0  0  0  0  0  0  0
   13.2905    3.0939    7.2166 O   0  0  0  0  0  0  0  0  0  0  0  0
   14.6278    3.5389    7.0981 C   0  0  0  0  0  0  0  0  0  0  0  0
   11.3904    0.0071    7.0539 C   0  0  0  0  0  0  0  0  0  0  0  0
   12.3755   -0.8944    6.7104 C   0  0  0  0  0  0  0  0  0  0  0  0
   13.6963   -0.4566    6.5317 C   0  0  0  0  0  0  0  0  0  0  0  0
   14.6228   -1.3721    6.1971 N   0  0  0  0  0  0  0  0  0  0  0  0
   14.3256   -2.6701    6.0315 C   0  0  0  0  0  0  0  0  0  0  0  0
   13.0565   -3.0560    6.2084 N   0  0  0  0  0  0  0  0  0  0  0  0
   12.0614   -2.2203    6.5425 C   0  0  0  0  0  0  0  0  0  0  0  0
   10.7380   -2.6739    6.6843 N   0  0  0  0  0  0  0  0  0  0  0  0
   10.4993   -4.0825    6.7320 C   0  0  0  0  0  0  0  0  0  0  0  0
   11.5119   -4.9271    7.0774 C   0  0  0  0  0  0  0  0  0  0  0  0
   11.3081   -6.3162    7.1084 C   0  0  0  0  0  0  0  0  0  0  0  0
   12.6236   -7.4010    7.5545 Cl  0  0  0  0  0  0  0  0  0  0  0  0
   10.0821   -6.8545    6.7911 C   0  0  0  0  0  0  0  0  0  0  0  0
    9.8590   -8.1761    6.8115 F   0  0  0  0  0  0  0  0  0  0  0  0
    9.0566   -5.9763    6.4408 C   0  0  0  0  0  0  0  0  0  0  0  0
    9.2647   -4.6154    6.4126 C   0  0  0  0  0  0  0  0  0  0  0  0
 20 19  2  0
 20 21  1  0
 18 13  1  0
 18 17  2  0
 18 19  1  0
 17 16  1  0
 17 22  1  0
 22 21  2  0
 22 23  1  0
 15 14  1  0
 30 28  1  0
 30 31  2  0
 31 24  1  0
 25 24  2  0
 25 26  1  0
 13 12  2  0
 16 11  2  0
  8  7  1  0
  8  9  1  0
  9 10  1  0
  2  1  1  0
  2  3  1  0
  4  3  1  0
  4  5  1  0
  7  6  1  0
  1  6  1  0
  5  6  1  0
 28 26  2  0
 28 29  1  0
 26 27  1  0
 24 23  1  0
 12 11  1  0
 12 14  1  0
 11 10  1  0
M  CHG  1   6   1
M  END
$$$$
