
     RDKit          3D

 31 34  0  0  0  0  0  0  0  0999 V2000
    7.5857    5.6144    9.8809 C   0  0  0  0  0  0  0  0  0  0  0  0
    6.9849    6.6964    9.0324 C   0  0  0  0  0  0  0  0  0  0  0  0
    5.6270    6.7780    9.2215 O   0  0  0  0  0  0  0  0  0  0  0  0
    5.1317    5.5846    9.6848 C   0  0  0  0  0  0  0  0  0  0  0  0
    5.7729    4.3693    9.0502 C   0  0  0  0  0  0  0  0  0  0  0  0
    7.1532    4.2807    9.4443 N   0  0  0  0  0  4  0  0  0  0  0  0
    8.0282    3.9050    8.3631 C   0  0  0  0  0  0  0  0  0  0  0  0
    8.7846    2.6351    8.5823 C   0  0  0  0  0  0  0  0  0  0  0  0
    9.7628    2.3160    7.4708 C   0  0  0  0  0  0  0  0  0  0  0  0
   11.0956    2.3189    7.9443 O   0  0  0  0  0  0  0  0  0  0  0  0
   12.0194    1.3876    7.5585 C   0  0  0  0  0  0  0  0  0  0  0  0
   13.3430    1.7132    7.4182 C   0  0  0  0  0  0  0  0  0  0  0  0
   14.2858    0.8022    7.0355 C   0  0  0  0  0  0  0  0  0  0  0  0
   13.6910    3.0276    7.6858 O   0  0  0  0  0  0  0  0  0  0  0  0
   15.0537    3.3449    7.8925 C   0  0  0  0  0  0  0  0  0  0  0  0
   11.6226    0.0718    7.2987 C   0  0  0  0  0  0  0  0  0  0  0  0
   12.5609   -0.8611    6.9108 C   0  0  0  0  0  0  0  0  0  0  0  0
   13.9072   -0.4894    6.7785 C   0  0  0  0  0  0  0  0  0  0  0  0
   14.7860   -1.4335    6.3978 N   0  0  0  0  0  0  0  0  0  0  0  0
   14.4188   -2.6991    6.1447 C   0  0  0  0  0  0  0  0  0  0  0  0
   13.1272   -3.0219    6.2794 N   0  0  0  0  0  0  0  0  0  0  0  0
   12.1753   -2.1534    6.6535 C   0  0  0  0  0  0  0  0  0  0  0  0
   10.8262   -2.5383    6.7481 N   0  0  0  0  0  0  0  0  0  0  0  0
   10.5124   -3.9329    6.7644 C   0  0  0  0  0  0  0  0  0  0  0  0
   11.3614   -4.8084    7.3732 C   0  0  0  0  0  0  0  0  0  0  0  0
   11.0866   -6.1855    7.3819 C   0  0  0  0  0  0  0  0  0  0  0  0
   12.1908   -7.3104    8.1701 Cl  0  0  0  0  0  0  0  0  0  0  0  0
    9.9545   -6.6806    6.7762 C   0  0  0  0  0  0  0  0  0  0  0  0
    9.6672   -7.9898    6.7682 F   0  0  0  0  0  0  0  0  0  0  0  0
    9.0960   -5.7712    6.1586 C   0  0  0  0  0  0  0  0  0  0  0  0
    9.3728   -4.4223    6.1543 C   0  0  0  0  0  0  0  0  0  0  0  0
 20 19  2  0
 20 21  1  0
 18 13  1  0
 18 17  2  0
 18 19  1  0
 17 16  1  0
 17 22  1  0
 22 21  2  0
 22 23  1  0
 15 14  1  0
 30 28  1  0
 30 31  2  0
 31 24  1  0
 25 24  2  0
 25 26  1  0
 13 12  2  0
 16 11  2  0
  8  7  1  0
  8  9  1  0
  9 10  1  0
  2  1  1  0
  2  3  1  0
  4  3  1  0
  4  5  1  0
  7  6  1  0
  1  6  1  0
  5  6  1  0
 28 26  2  0
 28 29  1  0
 26 27  1  0
 24 23  1  0
 12 11  1  0
 12 14  1  0
 11 10  1  0
M  CHG  1   6   1
M  END
$$$$
