
     RDKit          3D

 31 34  0  0  0  0  0  0  0  0999 V2000
    5.7958    3.6597    9.2318 C   0  0  0  0  0  0  0  0  0  0  0  0
    5.6277    4.2961   10.5802 C   0  0  0  0  0  0  0  0  0  0  0  0
    5.0599    5.5421   10.4728 O   0  0  0  0  0  0  0  0  0  0  0  0
    5.2812    6.0673    9.2241 C   0  0  0  0  0  0  0  0  0  0  0  0
    6.6600    5.7734    8.6732 C   0  0  0  0  0  0  0  0  0  0  0  0
    6.7976    4.3641    8.4215 N   0  0  0  0  0  4  0  0  0  0  0  0
    8.0800    3.8403    8.8176 C   0  0  0  0  0  0  0  0  0  0  0  0
    8.3895    2.4771    8.2900 C   0  0  0  0  0  0  0  0  0  0  0  0
    9.4643    1.7555    9.0764 C   0  0  0  0  0  0  0  0  0  0  0  0
   10.7565    2.1166    8.6290 O   0  0  0  0  0  0  0  0  0  0  0  0
   11.6509    1.2056    8.1391 C   0  0  0  0  0  0  0  0  0  0  0  0
   12.9358    1.5657    7.8278 C   0  0  0  0  0  0  0  0  0  0  0  0
   13.8487    0.6756    7.3383 C   0  0  0  0  0  0  0  0  0  0  0  0
   13.2762    2.8931    8.0343 O   0  0  0  0  0  0  0  0  0  0  0  0
   14.6069    3.3033    7.7869 C   0  0  0  0  0  0  0  0  0  0  0  0
   11.2631   -0.1244    7.9466 C   0  0  0  0  0  0  0  0  0  0  0  0
   12.1715   -1.0365    7.4528 C   0  0  0  0  0  0  0  0  0  0  0  0
   13.4786   -0.6297    7.1460 C   0  0  0  0  0  0  0  0  0  0  0  0
   14.3293   -1.5546    6.6670 N   0  0  0  0  0  0  0  0  0  0  0  0
   13.9703   -2.8335    6.4769 C   0  0  0  0  0  0  0  0  0  0  0  0
   12.7163   -3.1898    6.7785 N   0  0  0  0  0  0  0  0  0  0  0  0
   11.7944   -2.3427    7.2610 C   0  0  0  0  0  0  0  0  0  0  0  0
   10.4802   -2.7634    7.5309 N   0  0  0  0  0  0  0  0  0  0  0  0
   10.1785   -4.1583    7.4504 C   0  0  0  0  0  0  0  0  0  0  0  0
   11.0419   -5.0673    7.9854 C   0  0  0  0  0  0  0  0  0  0  0  0
   10.7789   -6.4440    7.8979 C   0  0  0  0  0  0  0  0  0  0  0  0
   11.9018   -7.6123    8.5911 Cl  0  0  0  0  0  0  0  0  0  0  0  0
    9.6442   -6.9049    7.2707 C   0  0  0  0  0  0  0  0  0  0  0  0
    9.3680   -8.2128    7.1717 F   0  0  0  0  0  0  0  0  0  0  0  0
    8.7709   -5.9616    6.7295 C   0  0  0  0  0  0  0  0  0  0  0  0
    9.0361   -4.6133    6.8192 C   0  0  0  0  0  0  0  0  0  0  0  0
 20 19  2  0
 20 21  1  0
 18 13  1  0
 18 17  2  0
 18 19  1  0
 17 16  1  0
 17 22  1  0
 22 21  2  0
 22 23  1  0
 15 14  1  0
 30 28  1  0
 30 31  2  0
 31 24  1  0
 25 24  2  0
 25 26  1  0
 13 12  2  0
 16 11  2  0
  8  7  1  0
  8  9  1  0
  9 10  1  0
  2  1  1  0
  2  3  1  0
  4  3  1  0
  4  5  1  0
  7  6  1  0
  1  6  1  0
  5  6  1  0
 28 26  2  0
 28 29  1  0
 26 27  1  0
 24 23  1  0
 12 11  1  0
 12 14  1  0
 11 10  1  0
M  CHG  1   6   1
M  END
$$$$
