
     RDKit          3D

 31 34  0  0  0  0  0  0  0  0999 V2000
    6.9790    5.6327    7.8385 C   0  0  0  0  0  0  0  0  0  0  0  0
    5.4814    5.6013    7.9270 C   0  0  0  0  0  0  0  0  0  0  0  0
    5.0357    6.2870    9.0304 O   0  0  0  0  0  0  0  0  0  0  0  0
    6.0170    6.3505    9.9881 C   0  0  0  0  0  0  0  0  0  0  0  0
    6.8270    5.0785   10.1181 C   0  0  0  0  0  0  0  0  0  0  0  0
    7.6020    4.8665    8.9253 N   0  0  0  0  0  4  0  0  0  0  0  0
    7.6154    3.4914    8.4952 C   0  0  0  0  0  0  0  0  0  0  0  0
    8.8339    2.7231    8.8921 C   0  0  0  0  0  0  0  0  0  0  0  0
    9.5070    2.0182    7.7327 C   0  0  0  0  0  0  0  0  0  0  0  0
   10.8769    2.3601    7.6505 O   0  0  0  0  0  0  0  0  0  0  0  0
   11.8510    1.4457    7.3588 C   0  0  0  0  0  0  0  0  0  0  0  0
   13.1607    1.8220    7.2147 C   0  0  0  0  0  0  0  0  0  0  0  0
   14.1526    0.9292    6.9247 C   0  0  0  0  0  0  0  0  0  0  0  0
   13.4415    3.1691    7.3786 O   0  0  0  0  0  0  0  0  0  0  0  0
   14.7438    3.5519    7.7758 C   0  0  0  0  0  0  0  0  0  0  0  0
   11.5213    0.0956    7.2019 C   0  0  0  0  0  0  0  0  0  0  0  0
   12.5099   -0.8197    6.9085 C   0  0  0  0  0  0  0  0  0  0  0  0
   13.8399   -0.3959    6.7689 C   0  0  0  0  0  0  0  0  0  0  0  0
   14.7694   -1.3246    6.4826 N   0  0  0  0  0  0  0  0  0  0  0  0
   14.4668   -2.6228    6.3287 C   0  0  0  0  0  0  0  0  0  0  0  0
   13.1891   -2.9952    6.4675 N   0  0  0  0  0  0  0  0  0  0  0  0
   12.1902   -2.1458    6.7522 C   0  0  0  0  0  0  0  0  0  0  0  0
   10.8587   -2.5860    6.8552 N   0  0  0  0  0  0  0  0  0  0  0  0
   10.6103   -3.9874    6.9891 C   0  0  0  0  0  0  0  0  0  0  0  0
   11.6082   -4.8119    7.4159 C   0  0  0  0  0  0  0  0  0  0  0  0
   11.3952   -6.1950    7.5328 C   0  0  0  0  0  0  0  0  0  0  0  0
   12.6919   -7.2537    8.0840 Cl  0  0  0  0  0  0  0  0  0  0  0  0
   10.1746   -6.7476    7.2191 C   0  0  0  0  0  0  0  0  0  0  0  0
    9.9431   -8.0640    7.3204 F   0  0  0  0  0  0  0  0  0  0  0  0
    9.1641   -5.8899    6.7848 C   0  0  0  0  0  0  0  0  0  0  0  0
    9.3812   -4.5347    6.6727 C   0  0  0  0  0  0  0  0  0  0  0  0
 20 19  2  0
 20 21  1  0
 18 13  1  0
 18 17  2  0
 18 19  1  0
 17 16  1  0
 17 22  1  0
 22 21  2  0
 22 23  1  0
 15 14  1  0
 30 28  1  0
 30 31  2  0
 31 24  1  0
 25 24  2  0
 25 26  1  0
 13 12  2  0
 16 11  2  0
  8  7  1  0
  8  9  1  0
  9 10  1  0
  2  1  1  0
  2  3  1  0
  4  3  1  0
  4  5  1  0
  7  6  1  0
  1  6  1  0
  5  6  1  0
 28 26  2  0
 28 29  1  0
 26 27  1  0
 24 23  1  0
 12 11  1  0
 12 14  1  0
 11 10  1  0
M  CHG  1   6   1
M  END
$$$$
