
     RDKit          3D

 31 34  0  0  0  0  0  0  0  0999 V2000
    5.6747    3.8467    9.7036 C   0  0  0  0  0  0  0  0  0  0  0  0
    5.3939    5.2834   10.0330 C   0  0  0  0  0  0  0  0  0  0  0  0
    4.4336    5.8042    9.2005 O   0  0  0  0  0  0  0  0  0  0  0  0
    4.3797    5.0980    8.0247 C   0  0  0  0  0  0  0  0  0  0  0  0
    5.7361    4.6739    7.5039 C   0  0  0  0  0  0  0  0  0  0  0  0
    6.3230    3.7080    8.3933 N   0  0  0  0  0  4  0  0  0  0  0  0
    7.7306    3.9223    8.6134 C   0  0  0  0  0  0  0  0  0  0  0  0
    8.4660    2.7415    9.1588 C   0  0  0  0  0  0  0  0  0  0  0  0
    9.2338    1.9697    8.1058 C   0  0  0  0  0  0  0  0  0  0  0  0
   10.5903    2.3682    8.0655 O   0  0  0  0  0  0  0  0  0  0  0  0
   11.6025    1.5130    7.7280 C   0  0  0  0  0  0  0  0  0  0  0  0
   12.9026    1.9404    7.6592 C   0  0  0  0  0  0  0  0  0  0  0  0
   13.9319    1.1071    7.3258 C   0  0  0  0  0  0  0  0  0  0  0  0
   13.1333    3.2762    7.9471 O   0  0  0  0  0  0  0  0  0  0  0  0
   14.4496    3.7815    7.8354 C   0  0  0  0  0  0  0  0  0  0  0  0
   11.3229    0.1721    7.4451 C   0  0  0  0  0  0  0  0  0  0  0  0
   12.3497   -0.6835    7.1063 C   0  0  0  0  0  0  0  0  0  0  0  0
   13.6684   -0.2084    7.0467 C   0  0  0  0  0  0  0  0  0  0  0  0
   14.6365   -1.0798    6.7119 N   0  0  0  0  0  0  0  0  0  0  0  0
   14.3821   -2.3684    6.4375 C   0  0  0  0  0  0  0  0  0  0  0  0
   13.1139   -2.7905    6.5024 N   0  0  0  0  0  0  0  0  0  0  0  0
   12.0792   -2.0001    6.8266 C   0  0  0  0  0  0  0  0  0  0  0  0
   10.7608   -2.4883    6.8483 N   0  0  0  0  0  0  0  0  0  0  0  0
   10.5551   -3.9029    6.8359 C   0  0  0  0  0  0  0  0  0  0  0  0
   11.4074   -4.7147    7.5232 C   0  0  0  0  0  0  0  0  0  0  0  0
   11.2397   -6.1089    7.5068 C   0  0  0  0  0  0  0  0  0  0  0  0
   12.3476   -7.1510    8.3971 Cl  0  0  0  0  0  0  0  0  0  0  0  0
   10.2114   -6.6853    6.7969 C   0  0  0  0  0  0  0  0  0  0  0  0
   10.0277   -8.0126    6.7627 F   0  0  0  0  0  0  0  0  0  0  0  0
    9.3478   -5.8403    6.1000 C   0  0  0  0  0  0  0  0  0  0  0  0
    9.5193   -4.4742    6.1209 C   0  0  0  0  0  0  0  0  0  0  0  0
 20 19  2  0
 20 21  1  0
 18 13  1  0
 18 17  2  0
 18 19  1  0
 17 16  1  0
 17 22  1  0
 22 21  2  0
 22 23  1  0
 15 14  1  0
 30 28  1  0
 30 31  2  0
 31 24  1  0
 25 24  2  0
 25 26  1  0
 13 12  2  0
 16 11  2  0
  8  7  1  0
  8  9  1  0
  9 10  1  0
  2  1  1  0
  2  3  1  0
  4  3  1  0
  4  5  1  0
  7  6  1  0
  1  6  1  0
  5  6  1  0
 28 26  2  0
 28 29  1  0
 26 27  1  0
 24 23  1  0
 12 11  1  0
 12 14  1  0
 11 10  1  0
M  CHG  1   6   1
M  END
$$$$
