
     RDKit          3D

 31 34  0  0  0  0  0  0  0  0999 V2000
    6.3327    4.3801   10.3669 C   0  0  0  0  0  0  0  0  0  0  0  0
    6.3026    5.7268   11.0280 C   0  0  0  0  0  0  0  0  0  0  0  0
    6.0011    6.7160   10.1241 O   0  0  0  0  0  0  0  0  0  0  0  0
    6.3209    6.3190    8.8496 C   0  0  0  0  0  0  0  0  0  0  0  0
    7.6088    5.5287    8.7609 C   0  0  0  0  0  0  0  0  0  0  0  0
    7.4546    4.2632    9.4266 N   0  0  0  0  0  4  0  0  0  0  0  0
    8.6042    3.8924   10.2120 C   0  0  0  0  0  0  0  0  0  0  0  0
    9.8466    3.6379    9.4218 C   0  0  0  0  0  0  0  0  0  0  0  0
    9.7468    2.4306    8.5126 C   0  0  0  0  0  0  0  0  0  0  0  0
   10.7282    2.4727    7.4951 O   0  0  0  0  0  0  0  0  0  0  0  0
   11.7228    1.5404    7.3880 C   0  0  0  0  0  0  0  0  0  0  0  0
   13.0439    1.9039    7.4018 C   0  0  0  0  0  0  0  0  0  0  0  0
   14.0562    0.9931    7.2977 C   0  0  0  0  0  0  0  0  0  0  0  0
   13.3145    3.2571    7.5284 O   0  0  0  0  0  0  0  0  0  0  0  0
   14.6522    3.6703    7.7285 C   0  0  0  0  0  0  0  0  0  0  0  0
   11.4028    0.1847    7.2620 C   0  0  0  0  0  0  0  0  0  0  0  0
   12.4120   -0.7487    7.1552 C   0  0  0  0  0  0  0  0  0  0  0  0
   13.7532   -0.3375    7.1737 C   0  0  0  0  0  0  0  0  0  0  0  0
   14.7028   -1.2838    7.0667 N   0  0  0  0  0  0  0  0  0  0  0  0
   14.4098   -2.5875    6.9445 C   0  0  0  0  0  0  0  0  0  0  0  0
   13.1211   -2.9474    6.9296 N   0  0  0  0  0  0  0  0  0  0  0  0
   12.1021   -2.0803    7.0299 C   0  0  0  0  0  0  0  0  0  0  0  0
   10.7643   -2.5098    6.9760 N   0  0  0  0  0  0  0  0  0  0  0  0
   10.4999   -3.9086    6.8456 C   0  0  0  0  0  0  0  0  0  0  0  0
   11.1903   -4.8000    7.6115 C   0  0  0  0  0  0  0  0  0  0  0  0
   10.9650   -6.1803    7.4846 C   0  0  0  0  0  0  0  0  0  0  0  0
   11.8635   -7.3258    8.4779 Cl  0  0  0  0  0  0  0  0  0  0  0  0
   10.0424   -6.6625    6.5847 C   0  0  0  0  0  0  0  0  0  0  0  0
    9.8071   -7.9743    6.4417 F   0  0  0  0  0  0  0  0  0  0  0  0
    9.3439   -5.7369    5.8095 C   0  0  0  0  0  0  0  0  0  0  0  0
    9.5710   -4.3850    5.9398 C   0  0  0  0  0  0  0  0  0  0  0  0
 20 19  2  0
 20 21  1  0
 18 13  1  0
 18 17  2  0
 18 19  1  0
 17 16  1  0
 17 22  1  0
 22 21  2  0
 22 23  1  0
 15 14  1  0
 30 28  1  0
 30 31  2  0
 31 24  1  0
 25 24  2  0
 25 26  1  0
 13 12  2  0
 16 11  2  0
  8  7  1  0
  8  9  1  0
  9 10  1  0
  2  1  1  0
  2  3  1  0
  4  3  1  0
  4  5  1  0
  7  6  1  0
  1  6  1  0
  5  6  1  0
 28 26  2  0
 28 29  1  0
 26 27  1  0
 24 23  1  0
 12 11  1  0
 12 14  1  0
 11 10  1  0
M  CHG  1   6   1
M  END
$$$$
