
     RDKit          3D

 31 34  0  0  0  0  0  0  0  0999 V2000
    5.7580    4.6973    7.2838 C   0  0  0  0  0  0  0  0  0  0  0  0
    4.6222    4.1368    8.0884 C   0  0  0  0  0  0  0  0  0  0  0  0
    4.2912    4.9720    9.1272 O   0  0  0  0  0  0  0  0  0  0  0  0
    5.3564    5.7699    9.4631 C   0  0  0  0  0  0  0  0  0  0  0  0
    6.6922    5.0601    9.4103 C   0  0  0  0  0  0  0  0  0  0  0  0
    7.0097    4.7128    8.0513 N   0  0  0  0  0  4  0  0  0  0  0  0
    7.5806    3.3964    7.9215 C   0  0  0  0  0  0  0  0  0  0  0  0
    8.9095    3.2222    8.5822 C   0  0  0  0  0  0  0  0  0  0  0  0
    9.6818    2.0212    8.0770 C   0  0  0  0  0  0  0  0  0  0  0  0
   11.0691    2.1691    8.3093 O   0  0  0  0  0  0  0  0  0  0  0  0
   11.9955    1.2756    7.8477 C   0  0  0  0  0  0  0  0  0  0  0  0
   13.3086    1.6315    7.6847 C   0  0  0  0  0  0  0  0  0  0  0  0
   14.2537    0.7586    7.2265 C   0  0  0  0  0  0  0  0  0  0  0  0
   13.6433    2.9364    8.0099 O   0  0  0  0  0  0  0  0  0  0  0  0
   15.0100    3.2853    8.1136 C   0  0  0  0  0  0  0  0  0  0  0  0
   11.6122   -0.0319    7.5316 C   0  0  0  0  0  0  0  0  0  0  0  0
   12.5530   -0.9266    7.0674 C   0  0  0  0  0  0  0  0  0  0  0  0
   13.8883   -0.5246    6.9140 C   0  0  0  0  0  0  0  0  0  0  0  0
   14.7701   -1.4319    6.4581 N   0  0  0  0  0  0  0  0  0  0  0  0
   14.4158   -2.6891    6.1505 C   0  0  0  0  0  0  0  0  0  0  0  0
   13.1344   -3.0414    6.3072 N   0  0  0  0  0  0  0  0  0  0  0  0
   12.1806   -2.2105    6.7547 C   0  0  0  0  0  0  0  0  0  0  0  0
   10.8415   -2.6238    6.8698 N   0  0  0  0  0  0  0  0  0  0  0  0
   10.5610   -4.0242    6.9315 C   0  0  0  0  0  0  0  0  0  0  0  0
   11.5073   -4.8816    7.4080 C   0  0  0  0  0  0  0  0  0  0  0  0
   11.2638   -6.2637    7.4564 C   0  0  0  0  0  0  0  0  0  0  0  0
   12.4939   -7.3652    8.0726 Cl  0  0  0  0  0  0  0  0  0  0  0  0
   10.0646   -6.7821    7.0241 C   0  0  0  0  0  0  0  0  0  0  0  0
    9.8049   -8.0967    7.0579 F   0  0  0  0  0  0  0  0  0  0  0  0
    9.1069   -5.8910    6.5403 C   0  0  0  0  0  0  0  0  0  0  0  0
    9.3536   -4.5370    6.4959 C   0  0  0  0  0  0  0  0  0  0  0  0
 20 19  2  0
 20 21  1  0
 18 13  1  0
 18 17  2  0
 18 19  1  0
 17 16  1  0
 17 22  1  0
 22 21  2  0
 22 23  1  0
 15 14  1  0
 30 28  1  0
 30 31  2  0
 31 24  1  0
 25 24  2  0
 25 26  1  0
 13 12  2  0
 16 11  2  0
  8  7  1  0
  8  9  1  0
  9 10  1  0
  2  1  1  0
  2  3  1  0
  4  3  1  0
  4  5  1  0
  7  6  1  0
  1  6  1  0
  5  6  1  0
 28 26  2  0
 28 29  1  0
 26 27  1  0
 24 23  1  0
 12 11  1  0
 12 14  1  0
 11 10  1  0
M  CHG  1   6   1
M  END
$$$$
