
     RDKit          3D

 31 34  0  0  0  0  0  0  0  0999 V2000
    7.7666    4.2842   10.8669 C   0  0  0  0  0  0  0  0  0  0  0  0
    8.2358    5.6555   11.2554 C   0  0  0  0  0  0  0  0  0  0  0  0
    7.1863    6.5392   11.3183 O   0  0  0  0  0  0  0  0  0  0  0  0
    6.1432    6.1058   10.5384 C   0  0  0  0  0  0  0  0  0  0  0  0
    6.5771    5.4809    9.2299 C   0  0  0  0  0  0  0  0  0  0  0  0
    7.2783    4.2509    9.4824 N   0  0  0  0  0  4  0  0  0  0  0  0
    8.4398    4.0791    8.6475 C   0  0  0  0  0  0  0  0  0  0  0  0
    9.0068    2.6967    8.6403 C   0  0  0  0  0  0  0  0  0  0  0  0
   10.0954    2.4964    7.6063 C   0  0  0  0  0  0  0  0  0  0  0  0
   11.3647    2.3670    8.2168 O   0  0  0  0  0  0  0  0  0  0  0  0
   12.2879    1.4421    7.8144 C   0  0  0  0  0  0  0  0  0  0  0  0
   13.6073    1.7758    7.6547 C   0  0  0  0  0  0  0  0  0  0  0  0
   14.5494    0.8714    7.2551 C   0  0  0  0  0  0  0  0  0  0  0  0
   13.9517    3.0916    7.9204 O   0  0  0  0  0  0  0  0  0  0  0  0
   15.3184    3.4552    7.9106 C   0  0  0  0  0  0  0  0  0  0  0  0
   11.8948    0.1247    7.5572 C   0  0  0  0  0  0  0  0  0  0  0  0
   12.8325   -0.8017    7.1525 C   0  0  0  0  0  0  0  0  0  0  0  0
   14.1744   -0.4218    7.0005 C   0  0  0  0  0  0  0  0  0  0  0  0
   15.0528   -1.3598    6.6039 N   0  0  0  0  0  0  0  0  0  0  0  0
   14.6891   -2.6268    6.3531 C   0  0  0  0  0  0  0  0  0  0  0  0
   13.4016   -2.9575    6.5067 N   0  0  0  0  0  0  0  0  0  0  0  0
   12.4505   -2.0956    6.8976 C   0  0  0  0  0  0  0  0  0  0  0  0
   11.1052   -2.4886    7.0118 N   0  0  0  0  0  0  0  0  0  0  0  0
   10.7911   -3.8812    6.9384 C   0  0  0  0  0  0  0  0  0  0  0  0
   11.5928   -4.7877    7.5657 C   0  0  0  0  0  0  0  0  0  0  0  0
   11.3180   -6.1627    7.4883 C   0  0  0  0  0  0  0  0  0  0  0  0
   12.3611   -7.3278    8.3011 Cl  0  0  0  0  0  0  0  0  0  0  0  0
   10.2337   -6.6244    6.7779 C   0  0  0  0  0  0  0  0  0  0  0  0
    9.9477   -7.9307    6.6863 F   0  0  0  0  0  0  0  0  0  0  0  0
    9.4231   -5.6836    6.1429 C   0  0  0  0  0  0  0  0  0  0  0  0
    9.6996   -4.3370    6.2234 C   0  0  0  0  0  0  0  0  0  0  0  0
 20 19  2  0
 20 21  1  0
 18 13  1  0
 18 17  2  0
 18 19  1  0
 17 16  1  0
 17 22  1  0
 22 21  2  0
 22 23  1  0
 15 14  1  0
 30 28  1  0
 30 31  2  0
 31 24  1  0
 25 24  2  0
 25 26  1  0
 13 12  2  0
 16 11  2  0
  8  7  1  0
  8  9  1  0
  9 10  1  0
  2  1  1  0
  2  3  1  0
  4  3  1  0
  4  5  1  0
  7  6  1  0
  1  6  1  0
  5  6  1  0
 28 26  2  0
 28 29  1  0
 26 27  1  0
 24 23  1  0
 12 11  1  0
 12 14  1  0
 11 10  1  0
M  CHG  1   6   1
M  END
$$$$
