
     RDKit          3D

 31 34  0  0  0  0  0  0  0  0999 V2000
    6.1819    3.9261    8.7728 C   0  0  0  0  0  0  0  0  0  0  0  0
    5.7705    4.2720   10.1738 C   0  0  0  0  0  0  0  0  0  0  0  0
    5.4355    5.5999   10.2783 O   0  0  0  0  0  0  0  0  0  0  0  0
    6.0408    6.3299    9.2860 C   0  0  0  0  0  0  0  0  0  0  0  0
    7.4567    5.8903    8.9811 C   0  0  0  0  0  0  0  0  0  0  0  0
    7.4479    4.5727    8.4048 N   0  0  0  0  0  4  0  0  0  0  0  0
    8.4975    3.7256    8.9116 C   0  0  0  0  0  0  0  0  0  0  0  0
    8.8349    2.5584    8.0418 C   0  0  0  0  0  0  0  0  0  0  0  0
   10.1850    2.6798    7.3661 C   0  0  0  0  0  0  0  0  0  0  0  0
   11.2133    2.1427    8.1751 O   0  0  0  0  0  0  0  0  0  0  0  0
   12.1011    1.2080    7.7189 C   0  0  0  0  0  0  0  0  0  0  0  0
   13.4234    1.5141    7.5304 C   0  0  0  0  0  0  0  0  0  0  0  0
   14.3305    0.5994    7.0771 C   0  0  0  0  0  0  0  0  0  0  0  0
   13.8082    2.8126    7.8244 O   0  0  0  0  0  0  0  0  0  0  0  0
   15.1694    3.1700    7.6831 C   0  0  0  0  0  0  0  0  0  0  0  0
   11.6677   -0.0911    7.4348 C   0  0  0  0  0  0  0  0  0  0  0  0
   12.5697   -1.0275    6.9758 C   0  0  0  0  0  0  0  0  0  0  0  0
   13.9159   -0.6760    6.7958 C   0  0  0  0  0  0  0  0  0  0  0  0
   14.7586   -1.6228    6.3463 N   0  0  0  0  0  0  0  0  0  0  0  0
   14.3561   -2.8725    6.0692 C   0  0  0  0  0  0  0  0  0  0  0  0
   13.0655   -3.1761    6.2508 N   0  0  0  0  0  0  0  0  0  0  0  0
   12.1481   -2.3034    6.6945 C   0  0  0  0  0  0  0  0  0  0  0  0
   10.7971   -2.6668    6.8365 N   0  0  0  0  0  0  0  0  0  0  0  0
   10.4645   -4.0561    6.8882 C   0  0  0  0  0  0  0  0  0  0  0  0
   11.3044   -4.9281    7.5144 C   0  0  0  0  0  0  0  0  0  0  0  0
   11.0108   -6.3007    7.5578 C   0  0  0  0  0  0  0  0  0  0  0  0
   12.1034   -7.4213    8.3683 Cl  0  0  0  0  0  0  0  0  0  0  0  0
    9.8692   -6.7948    6.9695 C   0  0  0  0  0  0  0  0  0  0  0  0
    9.5640   -8.0998    6.9947 F   0  0  0  0  0  0  0  0  0  0  0  0
    9.0203   -5.8890    6.3338 C   0  0  0  0  0  0  0  0  0  0  0  0
    9.3154   -4.5445    6.2954 C   0  0  0  0  0  0  0  0  0  0  0  0
 20 19  2  0
 20 21  1  0
 18 13  1  0
 18 17  2  0
 18 19  1  0
 17 16  1  0
 17 22  1  0
 22 21  2  0
 22 23  1  0
 15 14  1  0
 30 28  1  0
 30 31  2  0
 31 24  1  0
 25 24  2  0
 25 26  1  0
 13 12  2  0
 16 11  2  0
  8  7  1  0
  8  9  1  0
  9 10  1  0
  2  1  1  0
  2  3  1  0
  4  3  1  0
  4  5  1  0
  7  6  1  0
  1  6  1  0
  5  6  1  0
 28 26  2  0
 28 29  1  0
 26 27  1  0
 24 23  1  0
 12 11  1  0
 12 14  1  0
 11 10  1  0
M  CHG  1   6   1
M  END
$$$$
