
     RDKit          3D

 31 34  0  0  0  0  0  0  0  0999 V2000
    5.9175    4.0642    9.6788 C   0  0  0  0  0  0  0  0  0  0  0  0
    5.6819    3.8763   11.1487 C   0  0  0  0  0  0  0  0  0  0  0  0
    5.3976    5.0719   11.7619 O   0  0  0  0  0  0  0  0  0  0  0  0
    5.9026    6.1200   11.0334 C   0  0  0  0  0  0  0  0  0  0  0  0
    7.2608    5.8432   10.4254 C   0  0  0  0  0  0  0  0  0  0  0  0
    7.1491    4.8209    9.4200 N   0  0  0  0  0  4  0  0  0  0  0  0
    8.2272    3.8660    9.4606 C   0  0  0  0  0  0  0  0  0  0  0  0
    8.9748    3.7108    8.1762 C   0  0  0  0  0  0  0  0  0  0  0  0
    9.5874    2.3373    7.9968 C   0  0  0  0  0  0  0  0  0  0  0  0
   10.9616    2.3412    8.3315 O   0  0  0  0  0  0  0  0  0  0  0  0
   11.8375    1.3975    7.8710 C   0  0  0  0  0  0  0  0  0  0  0  0
   13.1355    1.7173    7.5700 C   0  0  0  0  0  0  0  0  0  0  0  0
   14.0305    0.7941    7.1097 C   0  0  0  0  0  0  0  0  0  0  0  0
   13.5085    3.0390    7.7557 O   0  0  0  0  0  0  0  0  0  0  0  0
   14.8821    3.3489    7.8877 C   0  0  0  0  0  0  0  0  0  0  0  0
   11.4168    0.0747    7.6988 C   0  0  0  0  0  0  0  0  0  0  0  0
   12.3068   -0.8705    7.2345 C   0  0  0  0  0  0  0  0  0  0  0  0
   13.6282   -0.5044    6.9374 C   0  0  0  0  0  0  0  0  0  0  0  0
   14.4599   -1.4606    6.4875 N   0  0  0  0  0  0  0  0  0  0  0  0
   14.0693   -2.7330    6.3170 C   0  0  0  0  0  0  0  0  0  0  0  0
   12.8025   -3.0502    6.6087 N   0  0  0  0  0  0  0  0  0  0  0  0
   11.8975   -2.1697    7.0627 C   0  0  0  0  0  0  0  0  0  0  0  0
   10.5691   -2.5502    7.3230 N   0  0  0  0  0  0  0  0  0  0  0  0
   10.2132   -3.9279    7.1868 C   0  0  0  0  0  0  0  0  0  0  0  0
   10.9917   -4.8862    7.7644 C   0  0  0  0  0  0  0  0  0  0  0  0
   10.6756   -6.2473    7.6247 C   0  0  0  0  0  0  0  0  0  0  0  0
   11.6889   -7.4797    8.3736 Cl  0  0  0  0  0  0  0  0  0  0  0  0
    9.5733   -6.6429    6.9022 C   0  0  0  0  0  0  0  0  0  0  0  0
    9.2480   -7.9345    6.7516 F   0  0  0  0  0  0  0  0  0  0  0  0
    8.7870   -5.6497    6.3186 C   0  0  0  0  0  0  0  0  0  0  0  0
    9.1039   -4.3171    6.4600 C   0  0  0  0  0  0  0  0  0  0  0  0
 20 19  2  0
 20 21  1  0
 18 13  1  0
 18 17  2  0
 18 19  1  0
 17 16  1  0
 17 22  1  0
 22 21  2  0
 22 23  1  0
 15 14  1  0
 30 28  1  0
 30 31  2  0
 31 24  1  0
 25 24  2  0
 25 26  1  0
 13 12  2  0
 16 11  2  0
  8  7  1  0
  8  9  1  0
  9 10  1  0
  2  1  1  0
  2  3  1  0
  4  3  1  0
  4  5  1  0
  7  6  1  0
  1  6  1  0
  5  6  1  0
 28 26  2  0
 28 29  1  0
 26 27  1  0
 24 23  1  0
 12 11  1  0
 12 14  1  0
 11 10  1  0
M  CHG  1   6   1
M  END
$$$$
