
     RDKit          3D

 31 34  0  0  0  0  0  0  0  0999 V2000
    6.5746    5.3703    9.1998 C   0  0  0  0  0  0  0  0  0  0  0  0
    6.3513    6.0276    7.8695 C   0  0  0  0  0  0  0  0  0  0  0  0
    5.1780    5.6012    7.2968 O   0  0  0  0  0  0  0  0  0  0  0  0
    4.8169    4.3735    7.7933 C   0  0  0  0  0  0  0  0  0  0  0  0
    5.9837    3.4332    8.0061 C   0  0  0  0  0  0  0  0  0  0  0  0
    6.8299    3.9313    9.0569 N   0  0  0  0  0  4  0  0  0  0  0  0
    8.2344    3.7962    8.7655 C   0  0  0  0  0  0  0  0  0  0  0  0
    8.7858    2.4219    8.9652 C   0  0  0  0  0  0  0  0  0  0  0  0
    9.6038    1.9236    7.7919 C   0  0  0  0  0  0  0  0  0  0  0  0
   10.9846    2.1520    7.9957 O   0  0  0  0  0  0  0  0  0  0  0  0
   11.9517    1.3134    7.5149 C   0  0  0  0  0  0  0  0  0  0  0  0
   13.2209    1.7624    7.2592 C   0  0  0  0  0  0  0  0  0  0  0  0
   14.2051    0.9459    6.7800 C   0  0  0  0  0  0  0  0  0  0  0  0
   13.4681    3.1025    7.5116 O   0  0  0  0  0  0  0  0  0  0  0  0
   14.7447    3.6303    7.2082 C   0  0  0  0  0  0  0  0  0  0  0  0
   11.6569   -0.0326    7.2747 C   0  0  0  0  0  0  0  0  0  0  0  0
   12.6383   -0.8714    6.7905 C   0  0  0  0  0  0  0  0  0  0  0  0
   13.9263   -0.3744    6.5412 C   0  0  0  0  0  0  0  0  0  0  0  0
   14.8504   -1.2300    6.0695 N   0  0  0  0  0  0  0  0  0  0  0  0
   14.5808   -2.5232    5.8340 C   0  0  0  0  0  0  0  0  0  0  0  0
   13.3427   -2.9664    6.0813 N   0  0  0  0  0  0  0  0  0  0  0  0
   12.3525   -2.1929    6.5520 C   0  0  0  0  0  0  0  0  0  0  0  0
   11.0595   -2.7032    6.7638 N   0  0  0  0  0  0  0  0  0  0  0  0
   10.8500   -4.1111    6.6325 C   0  0  0  0  0  0  0  0  0  0  0  0
   11.5857   -4.9761    7.3865 C   0  0  0  0  0  0  0  0  0  0  0  0
   11.4145   -6.3640    7.2580 C   0  0  0  0  0  0  0  0  0  0  0  0
   12.3714   -7.4750    8.2359 Cl  0  0  0  0  0  0  0  0  0  0  0  0
   10.5003   -6.8806    6.3687 C   0  0  0  0  0  0  0  0  0  0  0  0
   10.3162   -8.2004    6.2245 F   0  0  0  0  0  0  0  0  0  0  0  0
    9.7551   -5.9818    5.6056 C   0  0  0  0  0  0  0  0  0  0  0  0
    9.9292   -4.6222    5.7373 C   0  0  0  0  0  0  0  0  0  0  0  0
 20 19  2  0
 20 21  1  0
 18 13  1  0
 18 17  2  0
 18 19  1  0
 17 16  1  0
 17 22  1  0
 22 21  2  0
 22 23  1  0
 15 14  1  0
 30 28  1  0
 30 31  2  0
 31 24  1  0
 25 24  2  0
 25 26  1  0
 13 12  2  0
 16 11  2  0
  8  7  1  0
  8  9  1  0
  9 10  1  0
  2  1  1  0
  2  3  1  0
  4  3  1  0
  4  5  1  0
  7  6  1  0
  1  6  1  0
  5  6  1  0
 28 26  2  0
 28 29  1  0
 26 27  1  0
 24 23  1  0
 12 11  1  0
 12 14  1  0
 11 10  1  0
M  CHG  1   6   1
M  END
$$$$
