
     RDKit          3D

 31 34  0  0  0  0  0  0  0  0999 V2000
    6.3631    4.6188    9.3337 C   0  0  0  0  0  0  0  0  0  0  0  0
    6.4759    6.1033    9.5209 C   0  0  0  0  0  0  0  0  0  0  0  0
    5.5975    6.7739    8.7053 O   0  0  0  0  0  0  0  0  0  0  0  0
    5.2599    6.0020    7.6216 C   0  0  0  0  0  0  0  0  0  0  0  0
    6.4148    5.2029    7.0571 C   0  0  0  0  0  0  0  0  0  0  0  0
    6.8293    4.2035    8.0046 N   0  0  0  0  0  4  0  0  0  0  0  0
    8.2609    4.0726    8.1002 C   0  0  0  0  0  0  0  0  0  0  0  0
    8.7309    2.8706    8.8531 C   0  0  0  0  0  0  0  0  0  0  0  0
    9.5198    1.8965    8.0030 C   0  0  0  0  0  0  0  0  0  0  0  0
   10.8911    2.2410    7.9674 O   0  0  0  0  0  0  0  0  0  0  0  0
   11.8610    1.3729    7.5483 C   0  0  0  0  0  0  0  0  0  0  0  0
   13.1621    1.7765    7.4000 C   0  0  0  0  0  0  0  0  0  0  0  0
   14.1497    0.9299    6.9842 C   0  0  0  0  0  0  0  0  0  0  0  0
   13.4385    3.1021    7.6949 O   0  0  0  0  0  0  0  0  0  0  0  0
   14.7759    3.5551    7.6142 C   0  0  0  0  0  0  0  0  0  0  0  0
   11.5358    0.0431    7.2618 C   0  0  0  0  0  0  0  0  0  0  0  0
   12.5202   -0.8256    6.8404 C   0  0  0  0  0  0  0  0  0  0  0  0
   13.8414   -0.3749    6.7009 C   0  0  0  0  0  0  0  0  0  0  0  0
   14.7671   -1.2583    6.2871 N   0  0  0  0  0  0  0  0  0  0  0  0
   14.4688   -2.5365    6.0082 C   0  0  0  0  0  0  0  0  0  0  0  0
   13.1995   -2.9353    6.1506 N   0  0  0  0  0  0  0  0  0  0  0  0
   12.2050   -2.1314    6.5568 C   0  0  0  0  0  0  0  0  0  0  0  0
   10.8812   -2.5946    6.6583 N   0  0  0  0  0  0  0  0  0  0  0  0
   10.6469   -4.0046    6.6407 C   0  0  0  0  0  0  0  0  0  0  0  0
   11.5250   -4.8423    7.2611 C   0  0  0  0  0  0  0  0  0  0  0  0
   11.3287   -6.2327    7.2373 C   0  0  0  0  0  0  0  0  0  0  0  0
   12.4703   -7.3085    8.0408 Cl  0  0  0  0  0  0  0  0  0  0  0  0
   10.2457   -6.7791    6.5876 C   0  0  0  0  0  0  0  0  0  0  0  0
   10.0336   -8.1020    6.5480 F   0  0  0  0  0  0  0  0  0  0  0  0
    9.3564   -5.9079    5.9588 C   0  0  0  0  0  0  0  0  0  0  0  0
    9.5562   -4.5457    5.9864 C   0  0  0  0  0  0  0  0  0  0  0  0
 20 19  2  0
 20 21  1  0
 18 13  1  0
 18 17  2  0
 18 19  1  0
 17 16  1  0
 17 22  1  0
 22 21  2  0
 22 23  1  0
 15 14  1  0
 30 28  1  0
 30 31  2  0
 31 24  1  0
 25 24  2  0
 25 26  1  0
 13 12  2  0
 16 11  2  0
  8  7  1  0
  8  9  1  0
  9 10  1  0
  2  1  1  0
  2  3  1  0
  4  3  1  0
  4  5  1  0
  7  6  1  0
  1  6  1  0
  5  6  1  0
 28 26  2  0
 28 29  1  0
 26 27  1  0
 24 23  1  0
 12 11  1  0
 12 14  1  0
 11 10  1  0
M  CHG  1   6   1
M  END
$$$$
