
     RDKit          3D

 31 34  0  0  0  0  0  0  0  0999 V2000
    6.3263    5.0767    9.2807 C   0  0  0  0  0  0  0  0  0  0  0  0
    5.3947    5.2458    8.1167 C   0  0  0  0  0  0  0  0  0  0  0  0
    4.2171    4.5696    8.3220 O   0  0  0  0  0  0  0  0  0  0  0  0
    4.3978    3.5474    9.2202 C   0  0  0  0  0  0  0  0  0  0  0  0
    5.7141    2.8178    9.0587 C   0  0  0  0  0  0  0  0  0  0  0  0
    6.8046    3.6930    9.3952 N   0  0  0  0  0  4  0  0  0  0  0  0
    7.9237    3.5756    8.4953 C   0  0  0  0  0  0  0  0  0  0  0  0
    9.0426    2.7213    8.9959 C   0  0  0  0  0  0  0  0  0  0  0  0
    9.6140    1.7964    7.9413 C   0  0  0  0  0  0  0  0  0  0  0  0
   10.9620    2.1151    7.6558 O   0  0  0  0  0  0  0  0  0  0  0  0
   11.9134    1.1616    7.4202 C   0  0  0  0  0  0  0  0  0  0  0  0
   13.2470    1.4759    7.4006 C   0  0  0  0  0  0  0  0  0  0  0  0
   14.2170    0.5429    7.1689 C   0  0  0  0  0  0  0  0  0  0  0  0
   13.5759    2.8024    7.6300 O   0  0  0  0  0  0  0  0  0  0  0  0
   14.9406    3.1730    7.6562 C   0  0  0  0  0  0  0  0  0  0  0  0
   11.5351   -0.1657    7.1936 C   0  0  0  0  0  0  0  0  0  0  0  0
   12.5010   -1.1209    6.9575 C   0  0  0  0  0  0  0  0  0  0  0  0
   13.8568   -0.7603    6.9456 C   0  0  0  0  0  0  0  0  0  0  0  0
   14.7627   -1.7261    6.7112 N   0  0  0  0  0  0  0  0  0  0  0  0
   14.4135   -3.0030    6.4915 C   0  0  0  0  0  0  0  0  0  0  0  0
   13.1123   -3.3148    6.5087 N   0  0  0  0  0  0  0  0  0  0  0  0
   12.1338   -2.4247    6.7332 C   0  0  0  0  0  0  0  0  0  0  0  0
   10.7791   -2.8006    6.7080 N   0  0  0  0  0  0  0  0  0  0  0  0
   10.4550   -4.1926    6.7383 C   0  0  0  0  0  0  0  0  0  0  0  0
   11.3542   -5.0839    7.2432 C   0  0  0  0  0  0  0  0  0  0  0  0
   11.0682   -6.4586    7.2620 C   0  0  0  0  0  0  0  0  0  0  0  0
   12.2376   -7.6040    7.9153 Cl  0  0  0  0  0  0  0  0  0  0  0  0
    9.8743   -6.9354    6.7715 C   0  0  0  0  0  0  0  0  0  0  0  0
    9.5748   -8.2419    6.7760 F   0  0  0  0  0  0  0  0  0  0  0  0
    8.9650   -6.0100    6.2593 C   0  0  0  0  0  0  0  0  0  0  0  0
    9.2532   -4.6636    6.2442 C   0  0  0  0  0  0  0  0  0  0  0  0
 20 19  2  0
 20 21  1  0
 18 13  1  0
 18 17  2  0
 18 19  1  0
 17 16  1  0
 17 22  1  0
 22 21  2  0
 22 23  1  0
 15 14  1  0
 30 28  1  0
 30 31  2  0
 31 24  1  0
 25 24  2  0
 25 26  1  0
 13 12  2  0
 16 11  2  0
  8  7  1  0
  8  9  1  0
  9 10  1  0
  2  1  1  0
  2  3  1  0
  4  3  1  0
  4  5  1  0
  7  6  1  0
  1  6  1  0
  5  6  1  0
 28 26  2  0
 28 29  1  0
 26 27  1  0
 24 23  1  0
 12 11  1  0
 12 14  1  0
 11 10  1  0
M  CHG  1   6   1
M  END
$$$$
