
     RDKit          3D

 31 34  0  0  0  0  0  0  0  0999 V2000
    5.7077    2.1738    9.6464 C   0  0  0  0  0  0  0  0  0  0  0  0
    5.3534    2.8402   10.9433 C   0  0  0  0  0  0  0  0  0  0  0  0
    4.5164    3.9097   10.7386 O   0  0  0  0  0  0  0  0  0  0  0  0
    4.6502    4.3893    9.4594 C   0  0  0  0  0  0  0  0  0  0  0  0
    6.0766    4.3897    8.9531 C   0  0  0  0  0  0  0  0  0  0  0  0
    6.5447    3.0380    8.8043 N   0  0  0  0  0  4  0  0  0  0  0  0
    7.9001    2.8546    9.2573 C   0  0  0  0  0  0  0  0  0  0  0  0
    8.9487    3.3144    8.2973 C   0  0  0  0  0  0  0  0  0  0  0  0
    9.7313    2.1797    7.6696 C   0  0  0  0  0  0  0  0  0  0  0  0
   11.0820    2.1952    8.0889 O   0  0  0  0  0  0  0  0  0  0  0  0
   11.9839    1.2385    7.7132 C   0  0  0  0  0  0  0  0  0  0  0  0
   13.3026    1.5462    7.5036 C   0  0  0  0  0  0  0  0  0  0  0  0
   14.2237    0.6099    7.1291 C   0  0  0  0  0  0  0  0  0  0  0  0
   13.6689    2.8695    7.6909 O   0  0  0  0  0  0  0  0  0  0  0  0
   15.0217    3.2369    7.5025 C   0  0  0  0  0  0  0  0  0  0  0  0
   11.5691   -0.0854    7.5356 C   0  0  0  0  0  0  0  0  0  0  0  0
   12.4853   -1.0438    7.1572 C   0  0  0  0  0  0  0  0  0  0  0  0
   13.8273   -0.6899    6.9524 C   0  0  0  0  0  0  0  0  0  0  0  0
   14.6843   -1.6587    6.5842 N   0  0  0  0  0  0  0  0  0  0  0  0
   14.2996   -2.9323    6.4096 C   0  0  0  0  0  0  0  0  0  0  0  0
   13.0126   -3.2377    6.6122 N   0  0  0  0  0  0  0  0  0  0  0  0
   12.0819   -2.3442    6.9805 C   0  0  0  0  0  0  0  0  0  0  0  0
   10.7355   -2.7132    7.1485 N   0  0  0  0  0  0  0  0  0  0  0  0
   10.4103   -4.1038    7.2114 C   0  0  0  0  0  0  0  0  0  0  0  0
   11.2584   -4.9674    7.8381 C   0  0  0  0  0  0  0  0  0  0  0  0
   10.9721   -6.3412    7.8923 C   0  0  0  0  0  0  0  0  0  0  0  0
   12.0753   -7.4508    8.7035 Cl  0  0  0  0  0  0  0  0  0  0  0  0
    9.8295   -6.8449    7.3142 C   0  0  0  0  0  0  0  0  0  0  0  0
    9.5312   -8.1512    7.3498 F   0  0  0  0  0  0  0  0  0  0  0  0
    8.9721   -5.9476    6.6777 C   0  0  0  0  0  0  0  0  0  0  0  0
    9.2601   -4.6019    6.6287 C   0  0  0  0  0  0  0  0  0  0  0  0
 20 19  2  0
 20 21  1  0
 18 13  1  0
 18 17  2  0
 18 19  1  0
 17 16  1  0
 17 22  1  0
 22 21  2  0
 22 23  1  0
 15 14  1  0
 30 28  1  0
 30 31  2  0
 31 24  1  0
 25 24  2  0
 25 26  1  0
 13 12  2  0
 16 11  2  0
  8  7  1  0
  8  9  1  0
  9 10  1  0
  2  1  1  0
  2  3  1  0
  4  3  1  0
  4  5  1  0
  7  6  1  0
  1  6  1  0
  5  6  1  0
 28 26  2  0
 28 29  1  0
 26 27  1  0
 24 23  1  0
 12 11  1  0
 12 14  1  0
 11 10  1  0
M  CHG  1   6   1
M  END
$$$$
