
     RDKit          3D

 31 34  0  0  0  0  0  0  0  0999 V2000
    6.6529    4.9637    7.2484 C   0  0  0  0  0  0  0  0  0  0  0  0
    5.5250    4.5996    6.3283 C   0  0  0  0  0  0  0  0  0  0  0  0
    4.3189    5.0226    6.8312 O   0  0  0  0  0  0  0  0  0  0  0  0
    4.3891    5.1693    8.1942 C   0  0  0  0  0  0  0  0  0  0  0  0
    5.2036    4.0955    8.8832 C   0  0  0  0  0  0  0  0  0  0  0  0
    6.5872    4.2136    8.5091 N   0  0  0  0  0  4  0  0  0  0  0  0
    7.2165    2.9422    8.2570 C   0  0  0  0  0  0  0  0  0  0  0  0
    8.6117    2.8199    8.7775 C   0  0  0  0  0  0  0  0  0  0  0  0
    9.6070    2.3581    7.7334 C   0  0  0  0  0  0  0  0  0  0  0  0
   10.9075    2.2480    8.2783 O   0  0  0  0  0  0  0  0  0  0  0  0
   11.8248    1.3409    7.8248 C   0  0  0  0  0  0  0  0  0  0  0  0
   13.1269    1.6998    7.5935 C   0  0  0  0  0  0  0  0  0  0  0  0
   14.0628    0.8137    7.1418 C   0  0  0  0  0  0  0  0  0  0  0  0
   13.4601    3.0219    7.8416 O   0  0  0  0  0  0  0  0  0  0  0  0
   14.8241    3.3957    7.8326 C   0  0  0  0  0  0  0  0  0  0  0  0
   11.4435    0.0163    7.5879 C   0  0  0  0  0  0  0  0  0  0  0  0
   12.3751   -0.8919    7.1312 C   0  0  0  0  0  0  0  0  0  0  0  0
   13.6992   -0.4864    6.9065 C   0  0  0  0  0  0  0  0  0  0  0  0
   14.5722   -1.4073    6.4612 N   0  0  0  0  0  0  0  0  0  0  0  0
   14.2196   -2.6810    6.2292 C   0  0  0  0  0  0  0  0  0  0  0  0
   12.9490   -3.0363    6.4526 N   0  0  0  0  0  0  0  0  0  0  0  0
   12.0044   -2.1928    6.8961 C   0  0  0  0  0  0  0  0  0  0  0  0
   10.6752   -2.6115    7.0833 N   0  0  0  0  0  0  0  0  0  0  0  0
   10.3928   -4.0128    7.0802 C   0  0  0  0  0  0  0  0  0  0  0  0
   11.1613   -4.8577    7.8243 C   0  0  0  0  0  0  0  0  0  0  0  0
   10.9181   -6.2407    7.8190 C   0  0  0  0  0  0  0  0  0  0  0  0
   11.9180   -7.3258    8.7828 Cl  0  0  0  0  0  0  0  0  0  0  0  0
    9.8989   -6.7728    7.0629 C   0  0  0  0  0  0  0  0  0  0  0  0
    9.6444   -8.0885    7.0380 F   0  0  0  0  0  0  0  0  0  0  0  0
    9.1216   -5.8944    6.3081 C   0  0  0  0  0  0  0  0  0  0  0  0
    9.3667   -4.5394    6.3186 C   0  0  0  0  0  0  0  0  0  0  0  0
 20 19  2  0
 20 21  1  0
 18 13  1  0
 18 17  2  0
 18 19  1  0
 17 16  1  0
 17 22  1  0
 22 21  2  0
 22 23  1  0
 15 14  1  0
 30 28  1  0
 30 31  2  0
 31 24  1  0
 25 24  2  0
 25 26  1  0
 13 12  2  0
 16 11  2  0
  8  7  1  0
  8  9  1  0
  9 10  1  0
  2  1  1  0
  2  3  1  0
  4  3  1  0
  4  5  1  0
  7  6  1  0
  1  6  1  0
  5  6  1  0
 28 26  2  0
 28 29  1  0
 26 27  1  0
 24 23  1  0
 12 11  1  0
 12 14  1  0
 11 10  1  0
M  CHG  1   6   1
M  END
$$$$
