
     RDKit          3D

 31 34  0  0  0  0  0  0  0  0999 V2000
    7.7900    5.7472   10.2427 C   0  0  0  0  0  0  0  0  0  0  0  0
    7.4638    6.9341    9.3846 C   0  0  0  0  0  0  0  0  0  0  0  0
    6.1208    6.9872    9.1019 O   0  0  0  0  0  0  0  0  0  0  0  0
    5.5555    5.7410    9.2092 C   0  0  0  0  0  0  0  0  0  0  0  0
    6.4332    4.6247    8.6853 C   0  0  0  0  0  0  0  0  0  0  0  0
    7.5981    4.4851    9.5171 N   0  0  0  0  0  4  0  0  0  0  0  0
    8.8072    4.2619    8.7661 C   0  0  0  0  0  0  0  0  0  0  0  0
    8.8747    2.9439    8.0654 C   0  0  0  0  0  0  0  0  0  0  0  0
    9.7114    1.9142    8.7961 C   0  0  0  0  0  0  0  0  0  0  0  0
   11.0919    2.1983    8.6782 O   0  0  0  0  0  0  0  0  0  0  0  0
   11.9864    1.3119    8.1454 C   0  0  0  0  0  0  0  0  0  0  0  0
   13.2634    1.6934    7.8271 C   0  0  0  0  0  0  0  0  0  0  0  0
   14.1763    0.8281    7.2951 C   0  0  0  0  0  0  0  0  0  0  0  0
   13.5956    3.0164    8.0719 O   0  0  0  0  0  0  0  0  0  0  0  0
   14.9613    3.3702    8.1728 C   0  0  0  0  0  0  0  0  0  0  0  0
   11.6070   -0.0145    7.9152 C   0  0  0  0  0  0  0  0  0  0  0  0
   12.5156   -0.9019    7.3782 C   0  0  0  0  0  0  0  0  0  0  0  0
   13.8144   -0.4735    7.0655 C   0  0  0  0  0  0  0  0  0  0  0  0
   14.6656   -1.3746    6.5439 N   0  0  0  0  0  0  0  0  0  0  0  0
   14.3145   -2.6497    6.3172 C   0  0  0  0  0  0  0  0  0  0  0  0
   13.0683   -3.0270    6.6256 N   0  0  0  0  0  0  0  0  0  0  0  0
   12.1468   -2.2043    7.1493 C   0  0  0  0  0  0  0  0  0  0  0  0
   10.8403   -2.6454    7.4247 N   0  0  0  0  0  0  0  0  0  0  0  0
   10.5361   -4.0316    7.2532 C   0  0  0  0  0  0  0  0  0  0  0  0
   11.3515   -4.9745    7.8044 C   0  0  0  0  0  0  0  0  0  0  0  0
   11.0865   -6.3425    7.6298 C   0  0  0  0  0  0  0  0  0  0  0  0
   12.1472   -7.5549    8.3448 Cl  0  0  0  0  0  0  0  0  0  0  0  0
    9.9981   -6.7604    6.8989 C   0  0  0  0  0  0  0  0  0  0  0  0
    9.7212   -8.0590    6.7152 F   0  0  0  0  0  0  0  0  0  0  0  0
    9.1735   -5.7827    6.3424 C   0  0  0  0  0  0  0  0  0  0  0  0
    9.4405   -4.4433    6.5181 C   0  0  0  0  0  0  0  0  0  0  0  0
 20 19  2  0
 20 21  1  0
 18 13  1  0
 18 17  2  0
 18 19  1  0
 17 16  1  0
 17 22  1  0
 22 21  2  0
 22 23  1  0
 15 14  1  0
 30 28  1  0
 30 31  2  0
 31 24  1  0
 25 24  2  0
 25 26  1  0
 13 12  2  0
 16 11  2  0
  8  7  1  0
  8  9  1  0
  9 10  1  0
  2  1  1  0
  2  3  1  0
  4  3  1  0
  4  5  1  0
  7  6  1  0
  1  6  1  0
  5  6  1  0
 28 26  2  0
 28 29  1  0
 26 27  1  0
 24 23  1  0
 12 11  1  0
 12 14  1  0
 11 10  1  0
M  CHG  1   6   1
M  END
$$$$
