
     RDKit          3D

 31 34  0  0  0  0  0  0  0  0999 V2000
    6.3818    4.8306    9.5018 C   0  0  0  0  0  0  0  0  0  0  0  0
    6.2300    6.1189    8.7477 C   0  0  0  0  0  0  0  0  0  0  0  0
    4.9574    6.2544    8.2493 O   0  0  0  0  0  0  0  0  0  0  0  0
    4.3602    5.0263    8.1103 C   0  0  0  0  0  0  0  0  0  0  0  0
    5.2956    3.9446    7.6145 C   0  0  0  0  0  0  0  0  0  0  0  0
    6.2963    3.6674    8.6096 N   0  0  0  0  0  4  0  0  0  0  0  0
    7.6131    3.4857    8.0538 C   0  0  0  0  0  0  0  0  0  0  0  0
    8.6888    3.2369    9.0606 C   0  0  0  0  0  0  0  0  0  0  0  0
    9.5494    2.0327    8.7390 C   0  0  0  0  0  0  0  0  0  0  0  0
   10.5759    2.3657    7.8248 O   0  0  0  0  0  0  0  0  0  0  0  0
   11.5435    1.4777    7.4439 C   0  0  0  0  0  0  0  0  0  0  0  0
   12.8370    1.8796    7.2367 C   0  0  0  0  0  0  0  0  0  0  0  0
   13.8223    1.0134    6.8572 C   0  0  0  0  0  0  0  0  0  0  0  0
   13.1083    3.2245    7.4319 O   0  0  0  0  0  0  0  0  0  0  0  0
   14.4497    3.6677    7.3626 C   0  0  0  0  0  0  0  0  0  0  0  0
   11.2238    0.1288    7.2585 C   0  0  0  0  0  0  0  0  0  0  0  0
   12.2059   -0.7599    6.8750 C   0  0  0  0  0  0  0  0  0  0  0  0
   13.5193   -0.3102    6.6728 C   0  0  0  0  0  0  0  0  0  0  0  0
   14.4430   -1.2135    6.2994 N   0  0  0  0  0  0  0  0  0  0  0  0
   14.1498   -2.5102    6.1173 C   0  0  0  0  0  0  0  0  0  0  0  0
   12.8878   -2.9075    6.3175 N   0  0  0  0  0  0  0  0  0  0  0  0
   11.8959   -2.0846    6.6906 C   0  0  0  0  0  0  0  0  0  0  0  0
   10.5791   -2.5493    6.8558 N   0  0  0  0  0  0  0  0  0  0  0  0
   10.3295   -3.9521    6.7402 C   0  0  0  0  0  0  0  0  0  0  0  0
   11.0883   -4.8334    7.4511 C   0  0  0  0  0  0  0  0  0  0  0  0
   10.8775   -6.2170    7.3361 C   0  0  0  0  0  0  0  0  0  0  0  0
   11.8645   -7.3493    8.2580 Cl  0  0  0  0  0  0  0  0  0  0  0  0
    9.9004   -6.7128    6.5036 C   0  0  0  0  0  0  0  0  0  0  0  0
    9.6775   -8.0281    6.3734 F   0  0  0  0  0  0  0  0  0  0  0  0
    9.1324   -5.7975    5.7840 C   0  0  0  0  0  0  0  0  0  0  0  0
    9.3456   -4.4422    5.9022 C   0  0  0  0  0  0  0  0  0  0  0  0
 20 19  2  0
 20 21  1  0
 18 13  1  0
 18 17  2  0
 18 19  1  0
 17 16  1  0
 17 22  1  0
 22 21  2  0
 22 23  1  0
 15 14  1  0
 30 28  1  0
 30 31  2  0
 31 24  1  0
 25 24  2  0
 25 26  1  0
 13 12  2  0
 16 11  2  0
  8  7  1  0
  8  9  1  0
  9 10  1  0
  2  1  1  0
  2  3  1  0
  4  3  1  0
  4  5  1  0
  7  6  1  0
  1  6  1  0
  5  6  1  0
 28 26  2  0
 28 29  1  0
 26 27  1  0
 24 23  1  0
 12 11  1  0
 12 14  1  0
 11 10  1  0
M  CHG  1   6   1
M  END
$$$$
