
     RDKit          3D

 31 34  0  0  0  0  0  0  0  0999 V2000
    5.9547    3.9032    9.8249 C   0  0  0  0  0  0  0  0  0  0  0  0
    5.8815    4.9889   10.8581 C   0  0  0  0  0  0  0  0  0  0  0  0
    5.1456    6.0561   10.4043 O   0  0  0  0  0  0  0  0  0  0  0  0
    5.1313    6.0838    9.0320 C   0  0  0  0  0  0  0  0  0  0  0  0
    6.4531    5.7049    8.3994 C   0  0  0  0  0  0  0  0  0  0  0  0
    6.7408    4.3195    8.6565 N   0  0  0  0  0  4  0  0  0  0  0  0
    8.1216    4.0802    8.9914 C   0  0  0  0  0  0  0  0  0  0  0  0
    8.5651    2.6612    8.8425 C   0  0  0  0  0  0  0  0  0  0  0  0
    9.5782    2.4586    7.7350 C   0  0  0  0  0  0  0  0  0  0  0  0
   10.8967    2.4264    8.2459 O   0  0  0  0  0  0  0  0  0  0  0  0
   11.8257    1.5098    7.8375 C   0  0  0  0  0  0  0  0  0  0  0  0
   13.1328    1.8649    7.6297 C   0  0  0  0  0  0  0  0  0  0  0  0
   14.0803    0.9694    7.2231 C   0  0  0  0  0  0  0  0  0  0  0  0
   13.4586    3.1932    7.8533 O   0  0  0  0  0  0  0  0  0  0  0  0
   14.8081    3.5965    7.7242 C   0  0  0  0  0  0  0  0  0  0  0  0
   11.4515    0.1792    7.6239 C   0  0  0  0  0  0  0  0  0  0  0  0
   12.3949   -0.7385    7.2129 C   0  0  0  0  0  0  0  0  0  0  0  0
   13.7237   -0.3366    7.0109 C   0  0  0  0  0  0  0  0  0  0  0  0
   14.6083   -1.2669    6.6100 N   0  0  0  0  0  0  0  0  0  0  0  0
   14.2627   -2.5465    6.4007 C   0  0  0  0  0  0  0  0  0  0  0  0
   12.9872   -2.8980    6.6015 N   0  0  0  0  0  0  0  0  0  0  0  0
   12.0313   -2.0453    7.0007 C   0  0  0  0  0  0  0  0  0  0  0  0
   10.6982   -2.4613    7.1654 N   0  0  0  0  0  0  0  0  0  0  0  0
   10.4055   -3.8591    7.1033 C   0  0  0  0  0  0  0  0  0  0  0  0
   11.1409   -4.7361    7.8435 C   0  0  0  0  0  0  0  0  0  0  0  0
   10.8876   -6.1159    7.7812 C   0  0  0  0  0  0  0  0  0  0  0  0
   11.8447   -7.2427    8.7407 Cl  0  0  0  0  0  0  0  0  0  0  0  0
    9.8915   -6.6123    6.9720 C   0  0  0  0  0  0  0  0  0  0  0  0
    9.6279   -7.9241    6.8921 F   0  0  0  0  0  0  0  0  0  0  0  0
    9.1478   -5.7014    6.2219 C   0  0  0  0  0  0  0  0  0  0  0  0
    9.4027   -4.3498    6.2884 C   0  0  0  0  0  0  0  0  0  0  0  0
 20 19  2  0
 20 21  1  0
 18 13  1  0
 18 17  2  0
 18 19  1  0
 17 16  1  0
 17 22  1  0
 22 21  2  0
 22 23  1  0
 15 14  1  0
 30 28  1  0
 30 31  2  0
 31 24  1  0
 25 24  2  0
 25 26  1  0
 13 12  2  0
 16 11  2  0
  8  7  1  0
  8  9  1  0
  9 10  1  0
  2  1  1  0
  2  3  1  0
  4  3  1  0
  4  5  1  0
  7  6  1  0
  1  6  1  0
  5  6  1  0
 28 26  2  0
 28 29  1  0
 26 27  1  0
 24 23  1  0
 12 11  1  0
 12 14  1  0
 11 10  1  0
M  CHG  1   6   1
M  END
$$$$
