
     RDKit          3D

 31 34  0  0  0  0  0  0  0  0999 V2000
    6.0710    5.6166    9.1456 C   0  0  0  0  0  0  0  0  0  0  0  0
    5.2757    5.7902    7.8851 C   0  0  0  0  0  0  0  0  0  0  0  0
    4.0411    5.1983    7.9926 O   0  0  0  0  0  0  0  0  0  0  0  0
    4.0615    4.2086    8.9435 C   0  0  0  0  0  0  0  0  0  0  0  0
    5.3360    3.3922    8.9485 C   0  0  0  0  0  0  0  0  0  0  0  0
    6.4423    4.2125    9.3627 N   0  0  0  0  0  4  0  0  0  0  0  0
    7.6367    3.9853    8.5896 C   0  0  0  0  0  0  0  0  0  0  0  0
    8.6678    3.1400    9.2641 C   0  0  0  0  0  0  0  0  0  0  0  0
    9.2330    2.0526    8.3741 C   0  0  0  0  0  0  0  0  0  0  0  0
   10.4792    2.4353    7.8255 O   0  0  0  0  0  0  0  0  0  0  0  0
   11.4864    1.5425    7.5842 C   0  0  0  0  0  0  0  0  0  0  0  0
   12.7989    1.9360    7.5712 C   0  0  0  0  0  0  0  0  0  0  0  0
   13.8235    1.0647    7.3340 C   0  0  0  0  0  0  0  0  0  0  0  0
   13.0475    3.2777    7.8133 O   0  0  0  0  0  0  0  0  0  0  0  0
   14.3595    3.7730    7.6305 C   0  0  0  0  0  0  0  0  0  0  0  0
   11.1886    0.1970    7.3447 C   0  0  0  0  0  0  0  0  0  0  0  0
   12.2104   -0.6966    7.1029 C   0  0  0  0  0  0  0  0  0  0  0  0
   13.5422   -0.2556    7.0981 C   0  0  0  0  0  0  0  0  0  0  0  0
   14.5047   -1.1634    6.8577 N   0  0  0  0  0  0  0  0  0  0  0  0
   14.2329   -2.4568    6.6257 C   0  0  0  0  0  0  0  0  0  0  0  0
   12.9527   -2.8459    6.6363 N   0  0  0  0  0  0  0  0  0  0  0  0
   11.9222   -2.0179    6.8659 C   0  0  0  0  0  0  0  0  0  0  0  0
   10.5924   -2.4738    6.8335 N   0  0  0  0  0  0  0  0  0  0  0  0
   10.3532   -3.8828    6.8033 C   0  0  0  0  0  0  0  0  0  0  0  0
   11.1087   -4.7122    7.5773 C   0  0  0  0  0  0  0  0  0  0  0  0
   10.9081   -6.1018    7.5469 C   0  0  0  0  0  0  0  0  0  0  0  0
   11.8909   -7.1669    8.5499 Cl  0  0  0  0  0  0  0  0  0  0  0  0
    9.9446   -6.6559    6.7356 C   0  0  0  0  0  0  0  0  0  0  0  0
    9.7317   -7.9783    6.6858 F   0  0  0  0  0  0  0  0  0  0  0  0
    9.1798   -5.7931    5.9508 C   0  0  0  0  0  0  0  0  0  0  0  0
    9.3829   -4.4315    5.9861 C   0  0  0  0  0  0  0  0  0  0  0  0
 20 19  2  0
 20 21  1  0
 18 13  1  0
 18 17  2  0
 18 19  1  0
 17 16  1  0
 17 22  1  0
 22 21  2  0
 22 23  1  0
 15 14  1  0
 30 28  1  0
 30 31  2  0
 31 24  1  0
 25 24  2  0
 25 26  1  0
 13 12  2  0
 16 11  2  0
  8  7  1  0
  8  9  1  0
  9 10  1  0
  2  1  1  0
  2  3  1  0
  4  3  1  0
  4  5  1  0
  7  6  1  0
  1  6  1  0
  5  6  1  0
 28 26  2  0
 28 29  1  0
 26 27  1  0
 24 23  1  0
 12 11  1  0
 12 14  1  0
 11 10  1  0
M  CHG  1   6   1
M  END
$$$$
