
     RDKit          3D

 31 34  0  0  0  0  0  0  0  0999 V2000
    6.5557    4.3227    9.9042 C   0  0  0  0  0  0  0  0  0  0  0  0
    6.5748    5.8204    9.9942 C   0  0  0  0  0  0  0  0  0  0  0  0
    5.5342    6.3727    9.2882 O   0  0  0  0  0  0  0  0  0  0  0  0
    5.1033    5.5110    8.3105 C   0  0  0  0  0  0  0  0  0  0  0  0
    6.2225    4.7626    7.6190 C   0  0  0  0  0  0  0  0  0  0  0  0
    6.8520    3.8581    8.5431 N   0  0  0  0  0  4  0  0  0  0  0  0
    8.2879    3.8368    8.4261 C   0  0  0  0  0  0  0  0  0  0  0  0
    8.9573    2.7057    9.1367 C   0  0  0  0  0  0  0  0  0  0  0  0
    9.6553    1.7365    8.2052 C   0  0  0  0  0  0  0  0  0  0  0  0
   11.0228    2.0647    8.0549 O   0  0  0  0  0  0  0  0  0  0  0  0
   11.9671    1.1474    7.6852 C   0  0  0  0  0  0  0  0  0  0  0  0
   13.2818    1.5015    7.5308 C   0  0  0  0  0  0  0  0  0  0  0  0
   14.2445    0.6052    7.1636 C   0  0  0  0  0  0  0  0  0  0  0  0
   13.5991    2.8297    7.7671 O   0  0  0  0  0  0  0  0  0  0  0  0
   14.9609    3.2010    7.8565 C   0  0  0  0  0  0  0  0  0  0  0  0
   11.6010   -0.1830    7.4569 C   0  0  0  0  0  0  0  0  0  0  0  0
   12.5597   -1.1016    7.0850 C   0  0  0  0  0  0  0  0  0  0  0  0
   13.8960   -0.7007    6.9374 C   0  0  0  0  0  0  0  0  0  0  0  0
   14.7956   -1.6317    6.5734 N   0  0  0  0  0  0  0  0  0  0  0  0
   14.4579   -2.9111    6.3505 C   0  0  0  0  0  0  0  0  0  0  0  0
   13.1751   -3.2617    6.4991 N   0  0  0  0  0  0  0  0  0  0  0  0
   12.2042   -2.4082    6.8586 C   0  0  0  0  0  0  0  0  0  0  0  0
   10.8653   -2.8232    6.9688 N   0  0  0  0  0  0  0  0  0  0  0  0
   10.5749   -4.2213    6.9008 C   0  0  0  0  0  0  0  0  0  0  0  0
   11.3916   -5.1115    7.5319 C   0  0  0  0  0  0  0  0  0  0  0  0
   11.1403   -6.4913    7.4598 C   0  0  0  0  0  0  0  0  0  0  0  0
   12.2027   -7.6353    8.2776 Cl  0  0  0  0  0  0  0  0  0  0  0  0
   10.0642   -6.9741    6.7510 C   0  0  0  0  0  0  0  0  0  0  0  0
    9.8005   -8.2855    6.6645 F   0  0  0  0  0  0  0  0  0  0  0  0
    9.2380   -6.0497    6.1120 C   0  0  0  0  0  0  0  0  0  0  0  0
    9.4915   -4.6983    6.1873 C   0  0  0  0  0  0  0  0  0  0  0  0
 20 19  2  0
 20 21  1  0
 18 13  1  0
 18 17  2  0
 18 19  1  0
 17 16  1  0
 17 22  1  0
 22 21  2  0
 22 23  1  0
 15 14  1  0
 30 28  1  0
 30 31  2  0
 31 24  1  0
 25 24  2  0
 25 26  1  0
 13 12  2  0
 16 11  2  0
  8  7  1  0
  8  9  1  0
  9 10  1  0
  2  1  1  0
  2  3  1  0
  4  3  1  0
  4  5  1  0
  7  6  1  0
  1  6  1  0
  5  6  1  0
 28 26  2  0
 28 29  1  0
 26 27  1  0
 24 23  1  0
 12 11  1  0
 12 14  1  0
 11 10  1  0
M  CHG  1   6   1
M  END
$$$$
