
     RDKit          3D

 31 34  0  0  0  0  0  0  0  0999 V2000
    5.1711    3.4269    7.9444 C   0  0  0  0  0  0  0  0  0  0  0  0
    4.3644    3.7054    9.1787 C   0  0  0  0  0  0  0  0  0  0  0  0
    4.1113    5.0486    9.3127 O   0  0  0  0  0  0  0  0  0  0  0  0
    5.0507    5.7865    8.6365 C   0  0  0  0  0  0  0  0  0  0  0  0
    6.4544    5.2295    8.7383 C   0  0  0  0  0  0  0  0  0  0  0  0
    6.5321    3.9672    8.0535 N   0  0  0  0  0  4  0  0  0  0  0  0
    7.3031    2.9817    8.7677 C   0  0  0  0  0  0  0  0  0  0  0  0
    8.7809    3.2002    8.7371 C   0  0  0  0  0  0  0  0  0  0  0  0
    9.5664    1.9615    8.3593 C   0  0  0  0  0  0  0  0  0  0  0  0
   10.9330    2.2634    8.1556 O   0  0  0  0  0  0  0  0  0  0  0  0
   11.8385    1.3354    7.7211 C   0  0  0  0  0  0  0  0  0  0  0  0
   13.1427    1.6749    7.4729 C   0  0  0  0  0  0  0  0  0  0  0  0
   14.0670    0.7677    7.0396 C   0  0  0  0  0  0  0  0  0  0  0  0
   13.4905    2.9997    7.6839 O   0  0  0  0  0  0  0  0  0  0  0  0
   14.8524    3.3707    7.5948 C   0  0  0  0  0  0  0  0  0  0  0  0
   11.4426    0.0089    7.5216 C   0  0  0  0  0  0  0  0  0  0  0  0
   12.3623   -0.9204    7.0840 C   0  0  0  0  0  0  0  0  0  0  0  0
   13.6890   -0.5344    6.8410 C   0  0  0  0  0  0  0  0  0  0  0  0
   14.5502   -1.4756    6.4153 N   0  0  0  0  0  0  0  0  0  0  0  0
   14.1835   -2.7514    6.2192 C   0  0  0  0  0  0  0  0  0  0  0  0
   12.9108   -3.0877    6.4592 N   0  0  0  0  0  0  0  0  0  0  0  0
   11.9774   -2.2233    6.8856 C   0  0  0  0  0  0  0  0  0  0  0  0
   10.6452   -2.6234    7.0914 N   0  0  0  0  0  0  0  0  0  0  0  0
   10.3313   -4.0164    7.0234 C   0  0  0  0  0  0  0  0  0  0  0  0
   11.1327   -4.9203    7.6548 C   0  0  0  0  0  0  0  0  0  0  0  0
   10.8582   -6.2956    7.5827 C   0  0  0  0  0  0  0  0  0  0  0  0
   11.9008   -7.4573    8.4009 Cl  0  0  0  0  0  0  0  0  0  0  0  0
    9.7744   -6.7603    6.8735 C   0  0  0  0  0  0  0  0  0  0  0  0
    9.4886   -8.0670    6.7869 F   0  0  0  0  0  0  0  0  0  0  0  0
    8.9641   -5.8221    6.2341 C   0  0  0  0  0  0  0  0  0  0  0  0
    9.2403   -4.4751    6.3095 C   0  0  0  0  0  0  0  0  0  0  0  0
 20 19  2  0
 20 21  1  0
 18 13  1  0
 18 17  2  0
 18 19  1  0
 17 16  1  0
 17 22  1  0
 22 21  2  0
 22 23  1  0
 15 14  1  0
 30 28  1  0
 30 31  2  0
 31 24  1  0
 25 24  2  0
 25 26  1  0
 13 12  2  0
 16 11  2  0
  8  7  1  0
  8  9  1  0
  9 10  1  0
  2  1  1  0
  2  3  1  0
  4  3  1  0
  4  5  1  0
  7  6  1  0
  1  6  1  0
  5  6  1  0
 28 26  2  0
 28 29  1  0
 26 27  1  0
 24 23  1  0
 12 11  1  0
 12 14  1  0
 11 10  1  0
M  CHG  1   6   1
M  END
$$$$
