
     RDKit          3D

 31 34  0  0  0  0  0  0  0  0999 V2000
    6.9321    5.5359    9.6385 C   0  0  0  0  0  0  0  0  0  0  0  0
    6.8996    6.6010    8.5820 C   0  0  0  0  0  0  0  0  0  0  0  0
    5.7479    6.5257    7.8376 O   0  0  0  0  0  0  0  0  0  0  0  0
    5.2218    5.2589    7.8894 C   0  0  0  0  0  0  0  0  0  0  0  0
    6.2643    4.1623    7.8513 C   0  0  0  0  0  0  0  0  0  0  0  0
    7.0549    4.1951    9.0523 N   0  0  0  0  0  4  0  0  0  0  0  0
    8.4598    3.9854    8.8118 C   0  0  0  0  0  0  0  0  0  0  0  0
    8.8541    2.5586    8.6081 C   0  0  0  0  0  0  0  0  0  0  0  0
    9.8653    2.3647    7.4973 C   0  0  0  0  0  0  0  0  0  0  0  0
   11.1823    2.2993    8.0087 O   0  0  0  0  0  0  0  0  0  0  0  0
   12.0864    1.3563    7.6048 C   0  0  0  0  0  0  0  0  0  0  0  0
   13.4002    1.6775    7.3847 C   0  0  0  0  0  0  0  0  0  0  0  0
   14.3233    0.7550    6.9822 C   0  0  0  0  0  0  0  0  0  0  0  0
   13.7592    3.0000    7.5913 O   0  0  0  0  0  0  0  0  0  0  0  0
   13.9372    3.4603    8.9167 C   0  0  0  0  0  0  0  0  0  0  0  0
   11.6791    0.0327    7.4086 C   0  0  0  0  0  0  0  0  0  0  0  0
   12.5975   -0.9119    7.0019 C   0  0  0  0  0  0  0  0  0  0  0  0
   13.9342   -0.5443    6.7870 C   0  0  0  0  0  0  0  0  0  0  0  0
   14.7936   -1.4999    6.3910 N   0  0  0  0  0  0  0  0  0  0  0  0
   14.4161   -2.7731    6.1984 C   0  0  0  0  0  0  0  0  0  0  0  0
   13.1340   -3.0917    6.4112 N   0  0  0  0  0  0  0  0  0  0  0  0
   12.2014   -2.2119    6.8068 C   0  0  0  0  0  0  0  0  0  0  0  0
   10.8599   -2.5939    6.9846 N   0  0  0  0  0  0  0  0  0  0  0  0
   10.5462   -3.9878    7.0314 C   0  0  0  0  0  0  0  0  0  0  0  0
   11.4128   -4.8548    7.6274 C   0  0  0  0  0  0  0  0  0  0  0  0
   11.1378   -6.2314    7.6650 C   0  0  0  0  0  0  0  0  0  0  0  0
   12.2649   -7.3453    8.4364 Cl  0  0  0  0  0  0  0  0  0  0  0  0
    9.9878   -6.7346    7.1013 C   0  0  0  0  0  0  0  0  0  0  0  0
    9.6998   -8.0435    7.1217 F   0  0  0  0  0  0  0  0  0  0  0  0
    9.1114   -5.8338    6.4963 C   0  0  0  0  0  0  0  0  0  0  0  0
    9.3886   -4.4853    6.4634 C   0  0  0  0  0  0  0  0  0  0  0  0
 20 19  2  0
 20 21  1  0
 18 13  1  0
 18 17  2  0
 18 19  1  0
 17 16  1  0
 17 22  1  0
 22 21  2  0
 22 23  1  0
 15 14  1  0
 30 28  1  0
 30 31  2  0
 31 24  1  0
 25 24  2  0
 25 26  1  0
 13 12  2  0
 16 11  2  0
  8  7  1  0
  8  9  1  0
  9 10  1  0
  2  1  1  0
  2  3  1  0
  4  3  1  0
  4  5  1  0
  7  6  1  0
  1  6  1  0
  5  6  1  0
 28 26  2  0
 28 29  1  0
 26 27  1  0
 24 23  1  0
 12 11  1  0
 12 14  1  0
 11 10  1  0
M  CHG  1   6   1
M  END
$$$$
