
     RDKit          3D

 31 34  0  0  0  0  0  0  0  0999 V2000
    8.4125    6.1118   10.8242 C   0  0  0  0  0  0  0  0  0  0  0  0
    9.4613    7.1445   10.5325 C   0  0  0  0  0  0  0  0  0  0  0  0
    8.9762    8.1217    9.6982 O   0  0  0  0  0  0  0  0  0  0  0  0
    7.9163    7.6484    8.9656 C   0  0  0  0  0  0  0  0  0  0  0  0
    8.0863    6.2188    8.4985 C   0  0  0  0  0  0  0  0  0  0  0  0
    8.0758    5.3290    9.6283 N   0  0  0  0  0  4  0  0  0  0  0  0
    9.0642    4.2847    9.5364 C   0  0  0  0  0  0  0  0  0  0  0  0
    8.5569    2.9885    8.9933 C   0  0  0  0  0  0  0  0  0  0  0  0
    9.6074    1.8980    8.9545 C   0  0  0  0  0  0  0  0  0  0  0  0
   10.5784    2.1568    7.9591 O   0  0  0  0  0  0  0  0  0  0  0  0
   11.5402    1.2494    7.6108 C   0  0  0  0  0  0  0  0  0  0  0  0
   12.8374    1.6344    7.3946 C   0  0  0  0  0  0  0  0  0  0  0  0
   13.8171    0.7486    7.0470 C   0  0  0  0  0  0  0  0  0  0  0  0
   13.1185    2.9829    7.5463 O   0  0  0  0  0  0  0  0  0  0  0  0
   14.4636    3.4132    7.4680 C   0  0  0  0  0  0  0  0  0  0  0  0
   11.2107   -0.1024    7.4688 C   0  0  0  0  0  0  0  0  0  0  0  0
   12.1870   -1.0107    7.1180 C   0  0  0  0  0  0  0  0  0  0  0  0
   13.5044   -0.5780    6.9053 C   0  0  0  0  0  0  0  0  0  0  0  0
   14.4223   -1.5001    6.5648 N   0  0  0  0  0  0  0  0  0  0  0  0
   14.1196   -2.7998    6.4245 C   0  0  0  0  0  0  0  0  0  0  0  0
   12.8540   -3.1806    6.6337 N   0  0  0  0  0  0  0  0  0  0  0  0
   11.8674   -2.3384    6.9762 C   0  0  0  0  0  0  0  0  0  0  0  0
   10.5465   -2.7874    7.1524 N   0  0  0  0  0  0  0  0  0  0  0  0
   10.2896   -4.1927    7.1023 C   0  0  0  0  0  0  0  0  0  0  0  0
   11.1759   -5.0612    7.6663 C   0  0  0  0  0  0  0  0  0  0  0  0
   10.9571   -6.4472    7.6092 C   0  0  0  0  0  0  0  0  0  0  0  0
   12.1093   -7.5629    8.3398 Cl  0  0  0  0  0  0  0  0  0  0  0  0
    9.8434   -6.9582    6.9831 C   0  0  0  0  0  0  0  0  0  0  0  0
    9.6092   -8.2761    6.9127 F   0  0  0  0  0  0  0  0  0  0  0  0
    8.9461   -6.0558    6.4120 C   0  0  0  0  0  0  0  0  0  0  0  0
    9.1681   -4.6981    6.4721 C   0  0  0  0  0  0  0  0  0  0  0  0
 20 19  2  0
 20 21  1  0
 18 13  1  0
 18 17  2  0
 18 19  1  0
 17 16  1  0
 17 22  1  0
 22 21  2  0
 22 23  1  0
 15 14  1  0
 30 28  1  0
 30 31  2  0
 31 24  1  0
 25 24  2  0
 25 26  1  0
 13 12  2  0
 16 11  2  0
  8  7  1  0
  8  9  1  0
  9 10  1  0
  2  1  1  0
  2  3  1  0
  4  3  1  0
  4  5  1  0
  7  6  1  0
  1  6  1  0
  5  6  1  0
 28 26  2  0
 28 29  1  0
 26 27  1  0
 24 23  1  0
 12 11  1  0
 12 14  1  0
 11 10  1  0
M  CHG  1   6   1
M  END
$$$$
