
     RDKit          3D

 31 34  0  0  0  0  0  0  0  0999 V2000
    7.7407    6.2582    9.7240 C   0  0  0  0  0  0  0  0  0  0  0  0
    7.6212    7.1532    8.5256 C   0  0  0  0  0  0  0  0  0  0  0  0
    6.3197    7.2326    8.0941 O   0  0  0  0  0  0  0  0  0  0  0  0
    5.6089    6.1303    8.4989 C   0  0  0  0  0  0  0  0  0  0  0  0
    6.3921    4.8372    8.4244 C   0  0  0  0  0  0  0  0  0  0  0  0
    7.4638    4.8569    9.3833 N   0  0  0  0  0  4  0  0  0  0  0  0
    8.6951    4.3146    8.8680 C   0  0  0  0  0  0  0  0  0  0  0  0
    9.0037    2.9237    9.3184 C   0  0  0  0  0  0  0  0  0  0  0  0
    9.5357    2.0355    8.2129 C   0  0  0  0  0  0  0  0  0  0  0  0
   10.8669    2.3759    7.8776 O   0  0  0  0  0  0  0  0  0  0  0  0
   11.8122    1.4398    7.5615 C   0  0  0  0  0  0  0  0  0  0  0  0
   13.1414    1.7655    7.4919 C   0  0  0  0  0  0  0  0  0  0  0  0
   14.1054    0.8499    7.1796 C   0  0  0  0  0  0  0  0  0  0  0  0
   13.4722    3.0849    7.7566 O   0  0  0  0  0  0  0  0  0  0  0  0
   14.5986    3.6488    7.1135 C   0  0  0  0  0  0  0  0  0  0  0  0
   11.4321    0.1190    7.3018 C   0  0  0  0  0  0  0  0  0  0  0  0
   12.3920   -0.8185    6.9844 C   0  0  0  0  0  0  0  0  0  0  0  0
   13.7434   -0.4466    6.9233 C   0  0  0  0  0  0  0  0  0  0  0  0
   14.6435   -1.3954    6.6099 N   0  0  0  0  0  0  0  0  0  0  0  0
   14.2926   -2.6658    6.3577 C   0  0  0  0  0  0  0  0  0  0  0  0
   12.9956   -2.9886    6.4234 N   0  0  0  0  0  0  0  0  0  0  0  0
   12.0230   -2.1157    6.7273 C   0  0  0  0  0  0  0  0  0  0  0  0
   10.6710   -2.5015    6.7508 N   0  0  0  0  0  0  0  0  0  0  0  0
   10.3579   -3.8962    6.7584 C   0  0  0  0  0  0  0  0  0  0  0  0
   11.0953   -4.7491    7.5244 C   0  0  0  0  0  0  0  0  0  0  0  0
   10.8218   -6.1265    7.5302 C   0  0  0  0  0  0  0  0  0  0  0  0
   11.7815   -7.2222    8.5226 Cl  0  0  0  0  0  0  0  0  0  0  0  0
    9.8037   -6.6448    6.7632 C   0  0  0  0  0  0  0  0  0  0  0  0
    9.5206   -7.9548    6.7484 F   0  0  0  0  0  0  0  0  0  0  0  0
    9.0584   -5.7583    5.9859 C   0  0  0  0  0  0  0  0  0  0  0  0
    9.3331   -4.4089    5.9855 C   0  0  0  0  0  0  0  0  0  0  0  0
 20 19  2  0
 20 21  1  0
 18 13  1  0
 18 17  2  0
 18 19  1  0
 17 16  1  0
 17 22  1  0
 22 21  2  0
 22 23  1  0
 15 14  1  0
 30 28  1  0
 30 31  2  0
 31 24  1  0
 25 24  2  0
 25 26  1  0
 13 12  2  0
 16 11  2  0
  8  7  1  0
  8  9  1  0
  9 10  1  0
  2  1  1  0
  2  3  1  0
  4  3  1  0
  4  5  1  0
  7  6  1  0
  1  6  1  0
  5  6  1  0
 28 26  2  0
 28 29  1  0
 26 27  1  0
 24 23  1  0
 12 11  1  0
 12 14  1  0
 11 10  1  0
M  CHG  1   6   1
M  END
$$$$
