
     RDKit          3D

 31 34  0  0  0  0  0  0  0  0999 V2000
    6.0425    5.2032    7.6667 C   0  0  0  0  0  0  0  0  0  0  0  0
    4.7123    4.5879    7.9886 C   0  0  0  0  0  0  0  0  0  0  0  0
    4.1792    5.1301    9.1323 O   0  0  0  0  0  0  0  0  0  0  0  0
    5.1693    5.6572    9.9235 C   0  0  0  0  0  0  0  0  0  0  0  0
    6.4342    4.8266    9.9540 C   0  0  0  0  0  0  0  0  0  0  0  0
    7.0616    4.8405    8.6599 N   0  0  0  0  0  4  0  0  0  0  0  0
    7.5726    3.5529    8.2640 C   0  0  0  0  0  0  0  0  0  0  0  0
    8.7831    3.1018    9.0150 C   0  0  0  0  0  0  0  0  0  0  0  0
    9.4543    1.8888    8.4050 C   0  0  0  0  0  0  0  0  0  0  0  0
   10.7811    2.1808    8.0116 O   0  0  0  0  0  0  0  0  0  0  0  0
   11.6793    1.2106    7.6625 C   0  0  0  0  0  0  0  0  0  0  0  0
   13.0143    1.4902    7.5311 C   0  0  0  0  0  0  0  0  0  0  0  0
   13.9320    0.5400    7.1848 C   0  0  0  0  0  0  0  0  0  0  0  0
   13.4009    2.7997    7.7685 O   0  0  0  0  0  0  0  0  0  0  0  0
   14.7715    3.1352    7.6728 C   0  0  0  0  0  0  0  0  0  0  0  0
   11.2438   -0.0984    7.4323 C   0  0  0  0  0  0  0  0  0  0  0  0
   12.1564   -1.0706    7.0813 C   0  0  0  0  0  0  0  0  0  0  0  0
   13.5154   -0.7454    6.9568 C   0  0  0  0  0  0  0  0  0  0  0  0
   14.3681   -1.7267    6.6126 N   0  0  0  0  0  0  0  0  0  0  0  0
   13.9637   -2.9864    6.3881 C   0  0  0  0  0  0  0  0  0  0  0  0
   12.6608   -3.2643    6.5143 N   0  0  0  0  0  0  0  0  0  0  0  0
   11.7327   -2.3564    6.8530 C   0  0  0  0  0  0  0  0  0  0  0  0
   10.3709   -2.6957    6.9400 N   0  0  0  0  0  0  0  0  0  0  0  0
   10.0139   -4.0780    7.0132 C   0  0  0  0  0  0  0  0  0  0  0  0
   10.8616   -4.9631    7.6097 C   0  0  0  0  0  0  0  0  0  0  0  0
   10.5436   -6.3295    7.6729 C   0  0  0  0  0  0  0  0  0  0  0  0
   11.6465   -7.4671    8.4447 Cl  0  0  0  0  0  0  0  0  0  0  0  0
    9.3696   -6.8041    7.1344 C   0  0  0  0  0  0  0  0  0  0  0  0
    9.0405   -8.1027    7.1795 F   0  0  0  0  0  0  0  0  0  0  0  0
    8.5131   -5.8850    6.5285 C   0  0  0  0  0  0  0  0  0  0  0  0
    8.8324   -4.5467    6.4704 C   0  0  0  0  0  0  0  0  0  0  0  0
 20 19  2  0
 20 21  1  0
 18 13  1  0
 18 17  2  0
 18 19  1  0
 17 16  1  0
 17 22  1  0
 22 21  2  0
 22 23  1  0
 15 14  1  0
 30 28  1  0
 30 31  2  0
 31 24  1  0
 25 24  2  0
 25 26  1  0
 13 12  2  0
 16 11  2  0
  8  7  1  0
  8  9  1  0
  9 10  1  0
  2  1  1  0
  2  3  1  0
  4  3  1  0
  4  5  1  0
  7  6  1  0
  1  6  1  0
  5  6  1  0
 28 26  2  0
 28 29  1  0
 26 27  1  0
 24 23  1  0
 12 11  1  0
 12 14  1  0
 11 10  1  0
M  CHG  1   6   1
M  END
$$$$
