
     RDKit          3D

 31 34  0  0  0  0  0  0  0  0999 V2000
    5.2482    3.1762    8.5638 C   0  0  0  0  0  0  0  0  0  0  0  0
    4.7295    3.5044    9.9330 C   0  0  0  0  0  0  0  0  0  0  0  0
    4.3903    4.8318   10.0295 O   0  0  0  0  0  0  0  0  0  0  0  0
    5.0727    5.5733    9.0974 C   0  0  0  0  0  0  0  0  0  0  0  0
    6.5071    5.1333    8.8978 C   0  0  0  0  0  0  0  0  0  0  0  0
    6.5404    3.8236    8.3045 N   0  0  0  0  0  4  0  0  0  0  0  0
    7.5455    2.9664    8.8797 C   0  0  0  0  0  0  0  0  0  0  0  0
    8.9532    3.4152    8.6572 C   0  0  0  0  0  0  0  0  0  0  0  0
    9.7751    2.4406    7.8394 C   0  0  0  0  0  0  0  0  0  0  0  0
   11.0383    2.2112    8.4327 O   0  0  0  0  0  0  0  0  0  0  0  0
   11.9320    1.3008    7.9407 C   0  0  0  0  0  0  0  0  0  0  0  0
   13.2385    1.6407    7.7059 C   0  0  0  0  0  0  0  0  0  0  0  0
   14.1512    0.7506    7.2161 C   0  0  0  0  0  0  0  0  0  0  0  0
   13.6012    2.9473    7.9914 O   0  0  0  0  0  0  0  0  0  0  0  0
   14.9603    3.3204    7.8724 C   0  0  0  0  0  0  0  0  0  0  0  0
   11.5212   -0.0079    7.6668 C   0  0  0  0  0  0  0  0  0  0  0  0
   12.4292   -0.9197    7.1715 C   0  0  0  0  0  0  0  0  0  0  0  0
   13.7587   -0.5339    6.9444 C   0  0  0  0  0  0  0  0  0  0  0  0
   14.6080   -1.4576    6.4607 N   0  0  0  0  0  0  0  0  0  0  0  0
   14.2271   -2.7160    6.1929 C   0  0  0  0  0  0  0  0  0  0  0  0
   12.9520   -3.0527    6.4196 N   0  0  0  0  0  0  0  0  0  0  0  0
   12.0296   -2.2048    6.9000 C   0  0  0  0  0  0  0  0  0  0  0  0
   10.6942   -2.6026    7.0891 N   0  0  0  0  0  0  0  0  0  0  0  0
   10.3858   -3.9981    7.0609 C   0  0  0  0  0  0  0  0  0  0  0  0
   11.2487   -4.8913    7.6226 C   0  0  0  0  0  0  0  0  0  0  0  0
   10.9789   -6.2690    7.5866 C   0  0  0  0  0  0  0  0  0  0  0  0
   12.1012   -7.4169    8.3141 Cl  0  0  0  0  0  0  0  0  0  0  0  0
    9.8379   -6.7468    6.9838 C   0  0  0  0  0  0  0  0  0  0  0  0
    9.5552   -8.0561    6.9338 F   0  0  0  0  0  0  0  0  0  0  0  0
    8.9653   -5.8194    6.4147 C   0  0  0  0  0  0  0  0  0  0  0  0
    9.2372   -4.4701    6.4540 C   0  0  0  0  0  0  0  0  0  0  0  0
 20 19  2  0
 20 21  1  0
 18 13  1  0
 18 17  2  0
 18 19  1  0
 17 16  1  0
 17 22  1  0
 22 21  2  0
 22 23  1  0
 15 14  1  0
 30 28  1  0
 30 31  2  0
 31 24  1  0
 25 24  2  0
 25 26  1  0
 13 12  2  0
 16 11  2  0
  8  7  1  0
  8  9  1  0
  9 10  1  0
  2  1  1  0
  2  3  1  0
  4  3  1  0
  4  5  1  0
  7  6  1  0
  1  6  1  0
  5  6  1  0
 28 26  2  0
 28 29  1  0
 26 27  1  0
 24 23  1  0
 12 11  1  0
 12 14  1  0
 11 10  1  0
M  CHG  1   6   1
M  END
$$$$
