
     RDKit          3D

 31 34  0  0  0  0  0  0  0  0999 V2000
    6.0308    2.9632   10.1579 C   0  0  0  0  0  0  0  0  0  0  0  0
    5.0899    4.1319   10.1430 C   0  0  0  0  0  0  0  0  0  0  0  0
    3.8265    3.7463    9.7668 O   0  0  0  0  0  0  0  0  0  0  0  0
    3.8744    2.5889    9.0305 C   0  0  0  0  0  0  0  0  0  0  0  0
    5.0428    2.5233    8.0705 C   0  0  0  0  0  0  0  0  0  0  0  0
    6.2773    2.4489    8.8047 N   0  0  0  0  0  4  0  0  0  0  0  0
    7.3206    3.2689    8.2436 C   0  0  0  0  0  0  0  0  0  0  0  0
    8.6906    2.9846    8.7678 C   0  0  0  0  0  0  0  0  0  0  0  0
    9.6146    2.3678    7.7383 C   0  0  0  0  0  0  0  0  0  0  0  0
   10.9665    2.4563    8.1444 O   0  0  0  0  0  0  0  0  0  0  0  0
   11.9113    1.5398    7.7740 C   0  0  0  0  0  0  0  0  0  0  0  0
   13.2317    1.8866    7.6551 C   0  0  0  0  0  0  0  0  0  0  0  0
   14.1950    0.9909    7.2880 C   0  0  0  0  0  0  0  0  0  0  0  0
   13.5541    3.2065    7.9276 O   0  0  0  0  0  0  0  0  0  0  0  0
   14.9144    3.5936    7.9167 C   0  0  0  0  0  0  0  0  0  0  0  0
   11.5400    0.2177    7.5084 C   0  0  0  0  0  0  0  0  0  0  0  0
   12.4993   -0.7000    7.1361 C   0  0  0  0  0  0  0  0  0  0  0  0
   13.8415   -0.3068    7.0255 C   0  0  0  0  0  0  0  0  0  0  0  0
   14.7414   -1.2367    6.6596 N   0  0  0  0  0  0  0  0  0  0  0  0
   14.3987   -2.5081    6.4011 C   0  0  0  0  0  0  0  0  0  0  0  0
   13.1104   -2.8515    6.5150 N   0  0  0  0  0  0  0  0  0  0  0  0
   12.1387   -1.9984    6.8732 C   0  0  0  0  0  0  0  0  0  0  0  0
   10.7946   -2.4049    6.9460 N   0  0  0  0  0  0  0  0  0  0  0  0
   10.5018   -3.8040    6.9343 C   0  0  0  0  0  0  0  0  0  0  0  0
   11.3405   -4.6742    7.5645 C   0  0  0  0  0  0  0  0  0  0  0  0
   11.0865   -6.0553    7.5467 C   0  0  0  0  0  0  0  0  0  0  0  0
   12.1774   -7.1733    8.3629 Cl  0  0  0  0  0  0  0  0  0  0  0  0
    9.9856   -6.5596    6.8932 C   0  0  0  0  0  0  0  0  0  0  0  0
    9.7188   -7.8727    6.8591 F   0  0  0  0  0  0  0  0  0  0  0  0
    9.1372   -5.6555    6.2542 C   0  0  0  0  0  0  0  0  0  0  0  0
    9.3934   -4.3027    6.2761 C   0  0  0  0  0  0  0  0  0  0  0  0
 20 19  2  0
 20 21  1  0
 18 13  1  0
 18 17  2  0
 18 19  1  0
 17 16  1  0
 17 22  1  0
 22 21  2  0
 22 23  1  0
 15 14  1  0
 30 28  1  0
 30 31  2  0
 31 24  1  0
 25 24  2  0
 25 26  1  0
 13 12  2  0
 16 11  2  0
  8  7  1  0
  8  9  1  0
  9 10  1  0
  2  1  1  0
  2  3  1  0
  4  3  1  0
  4  5  1  0
  7  6  1  0
  1  6  1  0
  5  6  1  0
 28 26  2  0
 28 29  1  0
 26 27  1  0
 24 23  1  0
 12 11  1  0
 12 14  1  0
 11 10  1  0
M  CHG  1   6   1
M  END
$$$$
