
     RDKit          3D

 31 34  0  0  0  0  0  0  0  0999 V2000
    7.8579    5.0145   11.2030 C   0  0  0  0  0  0  0  0  0  0  0  0
    8.2894    6.4504   11.1446 C   0  0  0  0  0  0  0  0  0  0  0  0
    7.2777    7.2534   10.6778 O   0  0  0  0  0  0  0  0  0  0  0  0
    6.3901    6.5239    9.9267 C   0  0  0  0  0  0  0  0  0  0  0  0
    7.0464    5.4819    9.0466 C   0  0  0  0  0  0  0  0  0  0  0  0
    7.6442    4.4582    9.8609 N   0  0  0  0  0  4  0  0  0  0  0  0
    8.9382    4.0396    9.3853 C   0  0  0  0  0  0  0  0  0  0  0  0
    8.9524    3.5197    7.9846 C   0  0  0  0  0  0  0  0  0  0  0  0
    9.6802    2.1995    7.8383 C   0  0  0  0  0  0  0  0  0  0  0  0
   11.0729    2.3582    8.0275 O   0  0  0  0  0  0  0  0  0  0  0  0
   11.9804    1.3952    7.6828 C   0  0  0  0  0  0  0  0  0  0  0  0
   13.3090    1.6920    7.5267 C   0  0  0  0  0  0  0  0  0  0  0  0
   14.2358    0.7493    7.1841 C   0  0  0  0  0  0  0  0  0  0  0  0
   13.6793    3.0111    7.7350 O   0  0  0  0  0  0  0  0  0  0  0  0
   15.0552    3.3334    7.7920 C   0  0  0  0  0  0  0  0  0  0  0  0
   11.5613    0.0759    7.4824 C   0  0  0  0  0  0  0  0  0  0  0  0
   12.4832   -0.8889    7.1356 C   0  0  0  0  0  0  0  0  0  0  0  0
   13.8353   -0.5461    6.9854 C   0  0  0  0  0  0  0  0  0  0  0  0
   14.6976   -1.5208    6.6464 N   0  0  0  0  0  0  0  0  0  0  0  0
   14.3089   -2.7901    6.4505 C   0  0  0  0  0  0  0  0  0  0  0  0
   13.0124   -3.0848    6.6007 N   0  0  0  0  0  0  0  0  0  0  0  0
   12.0757   -2.1848    6.9366 C   0  0  0  0  0  0  0  0  0  0  0  0
   10.7205   -2.5425    7.0496 N   0  0  0  0  0  0  0  0  0  0  0  0
   10.3747   -3.9292    7.0216 C   0  0  0  0  0  0  0  0  0  0  0  0
   11.2538   -4.8537    7.5016 C   0  0  0  0  0  0  0  0  0  0  0  0
   10.9464   -6.2234    7.4632 C   0  0  0  0  0  0  0  0  0  0  0  0
   12.0898   -7.4119    8.0846 Cl  0  0  0  0  0  0  0  0  0  0  0  0
    9.7512   -6.6616    6.9405 C   0  0  0  0  0  0  0  0  0  0  0  0
    9.4316   -7.9624    6.8903 F   0  0  0  0  0  0  0  0  0  0  0  0
    8.8627   -5.7026    6.4545 C   0  0  0  0  0  0  0  0  0  0  0  0
    9.1718   -4.3614    6.4956 C   0  0  0  0  0  0  0  0  0  0  0  0
 20 19  2  0
 20 21  1  0
 18 13  1  0
 18 17  2  0
 18 19  1  0
 17 16  1  0
 17 22  1  0
 22 21  2  0
 22 23  1  0
 15 14  1  0
 30 28  1  0
 30 31  2  0
 31 24  1  0
 25 24  2  0
 25 26  1  0
 13 12  2  0
 16 11  2  0
  8  7  1  0
  8  9  1  0
  9 10  1  0
  2  1  1  0
  2  3  1  0
  4  3  1  0
  4  5  1  0
  7  6  1  0
  1  6  1  0
  5  6  1  0
 28 26  2  0
 28 29  1  0
 26 27  1  0
 24 23  1  0
 12 11  1  0
 12 14  1  0
 11 10  1  0
M  CHG  1   6   1
M  END
$$$$
