
     RDKit          3D

 31 34  0  0  0  0  0  0  0  0999 V2000
    5.7475    3.1982    9.0518 C   0  0  0  0  0  0  0  0  0  0  0  0
    5.5091    3.6958   10.4472 C   0  0  0  0  0  0  0  0  0  0  0  0
    5.0065    4.9739   10.4385 O   0  0  0  0  0  0  0  0  0  0  0  0
    5.3419    5.6165    9.2729 C   0  0  0  0  0  0  0  0  0  0  0  0
    6.7431    5.3115    8.7884 C   0  0  0  0  0  0  0  0  0  0  0  0
    6.8362    3.9317    8.3938 N   0  0  0  0  0  4  0  0  0  0  0  0
    8.0616    3.3029    8.8166 C   0  0  0  0  0  0  0  0  0  0  0  0
    9.2926    3.8119    8.1397 C   0  0  0  0  0  0  0  0  0  0  0  0
   10.0406    2.7458    7.3663 C   0  0  0  0  0  0  0  0  0  0  0  0
   11.1415    2.2538    8.1053 O   0  0  0  0  0  0  0  0  0  0  0  0
   11.9988    1.3086    7.6140 C   0  0  0  0  0  0  0  0  0  0  0  0
   13.2995    1.6155    7.3113 C   0  0  0  0  0  0  0  0  0  0  0  0
   14.1762    0.6905    6.8205 C   0  0  0  0  0  0  0  0  0  0  0  0
   13.6950    2.9259    7.5279 O   0  0  0  0  0  0  0  0  0  0  0  0
   15.0266    3.2960    7.2277 C   0  0  0  0  0  0  0  0  0  0  0  0
   11.5558   -0.0025    7.4111 C   0  0  0  0  0  0  0  0  0  0  0  0
   12.4272   -0.9494    6.9159 C   0  0  0  0  0  0  0  0  0  0  0  0
   13.7520   -0.5967    6.6181 C   0  0  0  0  0  0  0  0  0  0  0  0
   14.5650   -1.5540    6.1374 N   0  0  0  0  0  0  0  0  0  0  0  0
   14.1529   -2.8152    5.9373 C   0  0  0  0  0  0  0  0  0  0  0  0
   12.8833   -3.1197    6.2305 N   0  0  0  0  0  0  0  0  0  0  0  0
   11.9959   -2.2371    6.7139 C   0  0  0  0  0  0  0  0  0  0  0  0
   10.6635   -2.6031    6.9747 N   0  0  0  0  0  0  0  0  0  0  0  0
   10.3199   -3.9906    6.9588 C   0  0  0  0  0  0  0  0  0  0  0  0
   11.1207   -4.8914    7.5953 C   0  0  0  0  0  0  0  0  0  0  0  0
   10.8167   -6.2623    7.5737 C   0  0  0  0  0  0  0  0  0  0  0  0
   11.8588   -7.4201    8.3982 Cl  0  0  0  0  0  0  0  0  0  0  0  0
    9.7039   -6.7255    6.9099 C   0  0  0  0  0  0  0  0  0  0  0  0
    9.3896   -8.0280    6.8720 F   0  0  0  0  0  0  0  0  0  0  0  0
    8.8947   -5.7905    6.2646 C   0  0  0  0  0  0  0  0  0  0  0  0
    9.2000   -4.4480    6.2902 C   0  0  0  0  0  0  0  0  0  0  0  0
 20 19  2  0
 20 21  1  0
 18 13  1  0
 18 17  2  0
 18 19  1  0
 17 16  1  0
 17 22  1  0
 22 21  2  0
 22 23  1  0
 15 14  1  0
 30 28  1  0
 30 31  2  0
 31 24  1  0
 25 24  2  0
 25 26  1  0
 13 12  2  0
 16 11  2  0
  8  7  1  0
  8  9  1  0
  9 10  1  0
  2  1  1  0
  2  3  1  0
  4  3  1  0
  4  5  1  0
  7  6  1  0
  1  6  1  0
  5  6  1  0
 28 26  2  0
 28 29  1  0
 26 27  1  0
 24 23  1  0
 12 11  1  0
 12 14  1  0
 11 10  1  0
M  CHG  1   6   1
M  END
$$$$
