
     RDKit          3D

 31 34  0  0  0  0  0  0  0  0999 V2000
    7.8095    6.1521   10.2455 C   0  0  0  0  0  0  0  0  0  0  0  0
    6.8773    6.8686    9.3133 C   0  0  0  0  0  0  0  0  0  0  0  0
    5.5659    6.6419    9.6527 O   0  0  0  0  0  0  0  0  0  0  0  0
    5.4460    5.4725   10.3613 C   0  0  0  0  0  0  0  0  0  0  0  0
    6.3394    4.3590    9.8583 C   0  0  0  0  0  0  0  0  0  0  0  0
    7.7187    4.6950   10.0883 N   0  0  0  0  0  4  0  0  0  0  0  0
    8.5771    4.3527    8.9829 C   0  0  0  0  0  0  0  0  0  0  0  0
    8.7475    2.8861    8.7531 C   0  0  0  0  0  0  0  0  0  0  0  0
    9.7835    2.5569    7.6985 C   0  0  0  0  0  0  0  0  0  0  0  0
   11.0622    2.3752    8.2751 O   0  0  0  0  0  0  0  0  0  0  0  0
   11.9678    1.4699    7.7953 C   0  0  0  0  0  0  0  0  0  0  0  0
   13.2667    1.8269    7.5442 C   0  0  0  0  0  0  0  0  0  0  0  0
   14.1910    0.9425    7.0661 C   0  0  0  0  0  0  0  0  0  0  0  0
   13.6091    3.1451    7.8002 O   0  0  0  0  0  0  0  0  0  0  0  0
   14.9764    3.5069    7.8058 C   0  0  0  0  0  0  0  0  0  0  0  0
   11.5774    0.1492    7.5513 C   0  0  0  0  0  0  0  0  0  0  0  0
   12.4973   -0.7572    7.0681 C   0  0  0  0  0  0  0  0  0  0  0  0
   13.8186   -0.3537    6.8236 C   0  0  0  0  0  0  0  0  0  0  0  0
   14.6801   -1.2727    6.3527 N   0  0  0  0  0  0  0  0  0  0  0  0
   14.3187   -2.5427    6.1135 C   0  0  0  0  0  0  0  0  0  0  0  0
   13.0511   -2.8960    6.3563 N   0  0  0  0  0  0  0  0  0  0  0  0
   12.1178   -2.0542    6.8259 C   0  0  0  0  0  0  0  0  0  0  0  0
   10.7908   -2.4704    7.0329 N   0  0  0  0  0  0  0  0  0  0  0  0
   10.4797   -3.8585    6.8924 C   0  0  0  0  0  0  0  0  0  0  0  0
   11.2217   -4.7872    7.5594 C   0  0  0  0  0  0  0  0  0  0  0  0
   10.9502   -6.1578    7.4187 C   0  0  0  0  0  0  0  0  0  0  0  0
   11.9159   -7.3517    8.2837 Cl  0  0  0  0  0  0  0  0  0  0  0  0
    9.9293   -6.5928    6.6050 C   0  0  0  0  0  0  0  0  0  0  0  0
    9.6481   -7.8943    6.4513 F   0  0  0  0  0  0  0  0  0  0  0  0
    9.1792   -5.6295    5.9305 C   0  0  0  0  0  0  0  0  0  0  0  0
    9.4520   -4.2874    6.0735 C   0  0  0  0  0  0  0  0  0  0  0  0
 20 19  2  0
 20 21  1  0
 18 13  1  0
 18 17  2  0
 18 19  1  0
 17 16  1  0
 17 22  1  0
 22 21  2  0
 22 23  1  0
 15 14  1  0
 30 28  1  0
 30 31  2  0
 31 24  1  0
 25 24  2  0
 25 26  1  0
 13 12  2  0
 16 11  2  0
  8  7  1  0
  8  9  1  0
  9 10  1  0
  2  1  1  0
  2  3  1  0
  4  3  1  0
  4  5  1  0
  7  6  1  0
  1  6  1  0
  5  6  1  0
 28 26  2  0
 28 29  1  0
 26 27  1  0
 24 23  1  0
 12 11  1  0
 12 14  1  0
 11 10  1  0
M  CHG  1   6   1
M  END
$$$$
