
     RDKit          3D

 31 34  0  0  0  0  0  0  0  0999 V2000
    6.3376    4.5084    9.8155 C   0  0  0  0  0  0  0  0  0  0  0  0
    6.4314    5.9790   10.0984 C   0  0  0  0  0  0  0  0  0  0  0  0
    5.6753    6.7038    9.2099 O   0  0  0  0  0  0  0  0  0  0  0  0
    5.4842    5.9962    8.0493 C   0  0  0  0  0  0  0  0  0  0  0  0
    6.7010    5.2145    7.6029 C   0  0  0  0  0  0  0  0  0  0  0  0
    6.9779    4.1600    8.5408 N   0  0  0  0  0  4  0  0  0  0  0  0
    8.3826    4.0062    8.8220 C   0  0  0  0  0  0  0  0  0  0  0  0
    8.7997    2.6188    9.1878 C   0  0  0  0  0  0  0  0  0  0  0  0
    9.4582    1.8669    8.0498 C   0  0  0  0  0  0  0  0  0  0  0  0
   10.8171    2.2338    7.9114 O   0  0  0  0  0  0  0  0  0  0  0  0
   11.8035    1.3275    7.6372 C   0  0  0  0  0  0  0  0  0  0  0  0
   13.1171    1.7084    7.5526 C   0  0  0  0  0  0  0  0  0  0  0  0
   14.1213    0.8235    7.2813 C   0  0  0  0  0  0  0  0  0  0  0  0
   13.3886    3.0518    7.7575 O   0  0  0  0  0  0  0  0  0  0  0  0
   14.7369    3.4754    7.8132 C   0  0  0  0  0  0  0  0  0  0  0  0
   11.4829   -0.0192    7.4373 C   0  0  0  0  0  0  0  0  0  0  0  0
   12.4840   -0.9265    7.1620 C   0  0  0  0  0  0  0  0  0  0  0  0
   13.8176   -0.4981    7.0837 C   0  0  0  0  0  0  0  0  0  0  0  0
   14.7594   -1.4191    6.8130 N   0  0  0  0  0  0  0  0  0  0  0  0
   14.4656   -2.7138    6.6183 C   0  0  0  0  0  0  0  0  0  0  0  0
   13.1842   -3.0907    6.6990 N   0  0  0  0  0  0  0  0  0  0  0  0
   12.1733   -2.2491    6.9638 C   0  0  0  0  0  0  0  0  0  0  0  0
   10.8398   -2.6931    7.0051 N   0  0  0  0  0  0  0  0  0  0  0  0
   10.5856   -4.0991    6.9621 C   0  0  0  0  0  0  0  0  0  0  0  0
   11.3641   -4.9481    7.6908 C   0  0  0  0  0  0  0  0  0  0  0  0
   11.1487   -6.3351    7.6464 C   0  0  0  0  0  0  0  0  0  0  0  0
   12.1614   -7.4256    8.5907 Cl  0  0  0  0  0  0  0  0  0  0  0  0
   10.1472   -6.8668    6.8669 C   0  0  0  0  0  0  0  0  0  0  0  0
    9.9193   -8.1863    6.8046 F   0  0  0  0  0  0  0  0  0  0  0  0
    9.3592   -5.9842    6.1283 C   0  0  0  0  0  0  0  0  0  0  0  0
    9.5771   -4.6254    6.1770 C   0  0  0  0  0  0  0  0  0  0  0  0
 20 19  2  0
 20 21  1  0
 18 13  1  0
 18 17  2  0
 18 19  1  0
 17 16  1  0
 17 22  1  0
 22 21  2  0
 22 23  1  0
 15 14  1  0
 30 28  1  0
 30 31  2  0
 31 24  1  0
 25 24  2  0
 25 26  1  0
 13 12  2  0
 16 11  2  0
  8  7  1  0
  8  9  1  0
  9 10  1  0
  2  1  1  0
  2  3  1  0
  4  3  1  0
  4  5  1  0
  7  6  1  0
  1  6  1  0
  5  6  1  0
 28 26  2  0
 28 29  1  0
 26 27  1  0
 24 23  1  0
 12 11  1  0
 12 14  1  0
 11 10  1  0
M  CHG  1   6   1
M  END
$$$$
