
     RDKit          3D

 31 34  0  0  0  0  0  0  0  0999 V2000
    5.3702    3.3937    8.0416 C   0  0  0  0  0  0  0  0  0  0  0  0
    4.9682    3.9330    9.3829 C   0  0  0  0  0  0  0  0  0  0  0  0
    5.1230    5.2966    9.4354 O   0  0  0  0  0  0  0  0  0  0  0  0
    6.0487    5.7132    8.5115 C   0  0  0  0  0  0  0  0  0  0  0  0
    7.2361    4.7846    8.3747 C   0  0  0  0  0  0  0  0  0  0  0  0
    6.8147    3.5289    7.8142 N   0  0  0  0  0  4  0  0  0  0  0  0
    7.4323    2.3907    8.4458 C   0  0  0  0  0  0  0  0  0  0  0  0
    8.8744    2.5728    8.7920 C   0  0  0  0  0  0  0  0  0  0  0  0
    9.8195    1.9357    7.7945 C   0  0  0  0  0  0  0  0  0  0  0  0
   11.1415    1.8940    8.2953 O   0  0  0  0  0  0  0  0  0  0  0  0
   12.0859    1.0274    7.8187 C   0  0  0  0  0  0  0  0  0  0  0  0
   13.3557    1.4497    7.5239 C   0  0  0  0  0  0  0  0  0  0  0  0
   14.3175    0.6050    7.0479 C   0  0  0  0  0  0  0  0  0  0  0  0
   13.6279    2.7923    7.7329 O   0  0  0  0  0  0  0  0  0  0  0  0
   14.9747    3.2038    7.8639 C   0  0  0  0  0  0  0  0  0  0  0  0
   11.7662   -0.3201    7.6230 C   0  0  0  0  0  0  0  0  0  0  0  0
   12.7247   -1.1871    7.1427 C   0  0  0  0  0  0  0  0  0  0  0  0
   14.0143   -0.7170    6.8526 C   0  0  0  0  0  0  0  0  0  0  0  0
   14.9156   -1.5996    6.3863 N   0  0  0  0  0  0  0  0  0  0  0  0
   14.6221   -2.8946    6.1933 C   0  0  0  0  0  0  0  0  0  0  0  0
   13.3831   -3.3117    6.4789 N   0  0  0  0  0  0  0  0  0  0  0  0
   12.4146   -2.5103    6.9479 C   0  0  0  0  0  0  0  0  0  0  0  0
   11.1190   -2.9946    7.2009 N   0  0  0  0  0  0  0  0  0  0  0  0
   10.8975   -4.4064    7.1644 C   0  0  0  0  0  0  0  0  0  0  0  0
   11.1621   -5.1016    6.0223 C   0  0  0  0  0  0  0  0  0  0  0  0
   10.9302   -6.4850    5.9547 C   0  0  0  0  0  0  0  0  0  0  0  0
   11.2737   -7.3755    4.4731 Cl  0  0  0  0  0  0  0  0  0  0  0  0
   10.4313   -7.1684    7.0398 C   0  0  0  0  0  0  0  0  0  0  0  0
   10.1997   -8.4881    7.0037 F   0  0  0  0  0  0  0  0  0  0  0  0
   10.1669   -6.4422    8.2009 C   0  0  0  0  0  0  0  0  0  0  0  0
   10.3967   -5.0857    8.2590 C   0  0  0  0  0  0  0  0  0  0  0  0
 20 19  2  0
 20 21  1  0
 18 13  1  0
 18 17  2  0
 18 19  1  0
 17 16  1  0
 17 22  1  0
 22 21  2  0
 22 23  1  0
 15 14  1  0
 30 28  1  0
 30 31  2  0
 31 24  1  0
 25 24  2  0
 25 26  1  0
 13 12  2  0
 16 11  2  0
  8  7  1  0
  8  9  1  0
  9 10  1  0
  2  1  1  0
  2  3  1  0
  4  3  1  0
  4  5  1  0
  7  6  1  0
  1  6  1  0
  5  6  1  0
 28 26  2  0
 28 29  1  0
 26 27  1  0
 24 23  1  0
 12 11  1  0
 12 14  1  0
 11 10  1  0
M  CHG  1   6   1
M  END
$$$$
