
     RDKit          3D

 31 34  0  0  0  0  0  0  0  0999 V2000
    5.7160    3.4099    9.7641 C   0  0  0  0  0  0  0  0  0  0  0  0
    5.2328    4.7008   10.3570 C   0  0  0  0  0  0  0  0  0  0  0  0
    4.3271    5.3181    9.5293 O   0  0  0  0  0  0  0  0  0  0  0  0
    4.4988    4.9040    8.2319 C   0  0  0  0  0  0  0  0  0  0  0  0
    5.9484    4.7301    7.8328 C   0  0  0  0  0  0  0  0  0  0  0  0
    6.5306    3.6367    8.5635 N   0  0  0  0  0  4  0  0  0  0  0  0
    7.8667    3.9125    9.0269 C   0  0  0  0  0  0  0  0  0  0  0  0
    8.6357    2.7109    9.4714 C   0  0  0  0  0  0  0  0  0  0  0  0
    9.1727    1.8800    8.3245 C   0  0  0  0  0  0  0  0  0  0  0  0
   10.4699    2.3010    7.9499 O   0  0  0  0  0  0  0  0  0  0  0  0
   11.4675    1.4234    7.6264 C   0  0  0  0  0  0  0  0  0  0  0  0
   12.7662    1.8395    7.4925 C   0  0  0  0  0  0  0  0  0  0  0  0
   13.7810    0.9839    7.1714 C   0  0  0  0  0  0  0  0  0  0  0  0
   13.0110    3.1876    7.7003 O   0  0  0  0  0  0  0  0  0  0  0  0
   14.3127    3.6892    7.4675 C   0  0  0  0  0  0  0  0  0  0  0  0
   11.1739    0.0707    7.4256 C   0  0  0  0  0  0  0  0  0  0  0  0
   12.1860   -0.8073    7.1004 C   0  0  0  0  0  0  0  0  0  0  0  0
   13.5038   -0.3433    6.9725 C   0  0  0  0  0  0  0  0  0  0  0  0
   14.4572   -1.2366    6.6540 N   0  0  0  0  0  0  0  0  0  0  0  0
   14.1893   -2.5368    6.4579 C   0  0  0  0  0  0  0  0  0  0  0  0
   12.9224   -2.9479    6.5867 N   0  0  0  0  0  0  0  0  0  0  0  0
   11.9018   -2.1357    6.9010 C   0  0  0  0  0  0  0  0  0  0  0  0
   10.5830   -2.6149    6.9919 N   0  0  0  0  0  0  0  0  0  0  0  0
   10.3684   -4.0282    7.0056 C   0  0  0  0  0  0  0  0  0  0  0  0
   11.1850   -4.8275    7.7486 C   0  0  0  0  0  0  0  0  0  0  0  0
   11.0087   -6.2206    7.7594 C   0  0  0  0  0  0  0  0  0  0  0  0
   12.0705   -7.2466    8.7218 Cl  0  0  0  0  0  0  0  0  0  0  0  0
   10.0078   -6.8087    7.0206 C   0  0  0  0  0  0  0  0  0  0  0  0
    9.8166   -8.1353    7.0113 F   0  0  0  0  0  0  0  0  0  0  0  0
    9.1806   -5.9764    6.2666 C   0  0  0  0  0  0  0  0  0  0  0  0
    9.3602   -4.6112    6.2611 C   0  0  0  0  0  0  0  0  0  0  0  0
 20 19  2  0
 20 21  1  0
 18 13  1  0
 18 17  2  0
 18 19  1  0
 17 16  1  0
 17 22  1  0
 22 21  2  0
 22 23  1  0
 15 14  1  0
 30 28  1  0
 30 31  2  0
 31 24  1  0
 25 24  2  0
 25 26  1  0
 13 12  2  0
 16 11  2  0
  8  7  1  0
  8  9  1  0
  9 10  1  0
  2  1  1  0
  2  3  1  0
  4  3  1  0
  4  5  1  0
  7  6  1  0
  1  6  1  0
  5  6  1  0
 28 26  2  0
 28 29  1  0
 26 27  1  0
 24 23  1  0
 12 11  1  0
 12 14  1  0
 11 10  1  0
M  CHG  1   6   1
M  END
$$$$
