
     RDKit          3D

 31 34  0  0  0  0  0  0  0  0999 V2000
    6.3570    5.1925    8.0770 C   0  0  0  0  0  0  0  0  0  0  0  0
    5.3381    5.3469    9.1676 C   0  0  0  0  0  0  0  0  0  0  0  0
    5.5774    6.4751    9.9133 O   0  0  0  0  0  0  0  0  0  0  0  0
    6.8967    6.8429    9.8223 C   0  0  0  0  0  0  0  0  0  0  0  0
    7.8582    5.6739    9.8209 C   0  0  0  0  0  0  0  0  0  0  0  0
    7.6906    4.9024    8.6188 N   0  0  0  0  0  4  0  0  0  0  0  0
    7.7344    3.4806    8.8473 C   0  0  0  0  0  0  0  0  0  0  0  0
    9.0659    2.9562    9.2771 C   0  0  0  0  0  0  0  0  0  0  0  0
    9.6322    1.9080    8.3418 C   0  0  0  0  0  0  0  0  0  0  0  0
   10.9042    2.2892    7.8548 O   0  0  0  0  0  0  0  0  0  0  0  0
   11.8850    1.3831    7.5602 C   0  0  0  0  0  0  0  0  0  0  0  0
   13.1982    1.7619    7.4619 C   0  0  0  0  0  0  0  0  0  0  0  0
   14.1969    0.8773    7.1701 C   0  0  0  0  0  0  0  0  0  0  0  0
   13.4754    3.1029    7.6751 O   0  0  0  0  0  0  0  0  0  0  0  0
   14.8216    3.5355    7.6436 C   0  0  0  0  0  0  0  0  0  0  0  0
   11.5588    0.0389    7.3527 C   0  0  0  0  0  0  0  0  0  0  0  0
   12.5543   -0.8681    7.0566 C   0  0  0  0  0  0  0  0  0  0  0  0
   13.8877   -0.4419    6.9649 C   0  0  0  0  0  0  0  0  0  0  0  0
   14.8239   -1.3624    6.6740 N   0  0  0  0  0  0  0  0  0  0  0  0
   14.5247   -2.6548    6.4719 C   0  0  0  0  0  0  0  0  0  0  0  0
   13.2436   -3.0296    6.5658 N   0  0  0  0  0  0  0  0  0  0  0  0
   12.2381   -2.1882    6.8509 C   0  0  0  0  0  0  0  0  0  0  0  0
   10.9042   -2.6297    6.9055 N   0  0  0  0  0  0  0  0  0  0  0  0
   10.6461   -4.0346    6.8501 C   0  0  0  0  0  0  0  0  0  0  0  0
   11.4288   -4.8931    7.5631 C   0  0  0  0  0  0  0  0  0  0  0  0
   11.2095   -6.2790    7.5062 C   0  0  0  0  0  0  0  0  0  0  0  0
   12.2276   -7.3817    8.4302 Cl  0  0  0  0  0  0  0  0  0  0  0  0
   10.2000   -6.8001    6.7299 C   0  0  0  0  0  0  0  0  0  0  0  0
    9.9682   -8.1183    6.6559 F   0  0  0  0  0  0  0  0  0  0  0  0
    9.4078   -5.9079    6.0075 C   0  0  0  0  0  0  0  0  0  0  0  0
    9.6295   -4.5502    6.0684 C   0  0  0  0  0  0  0  0  0  0  0  0
 20 19  2  0
 20 21  1  0
 18 13  1  0
 18 17  2  0
 18 19  1  0
 17 16  1  0
 17 22  1  0
 22 21  2  0
 22 23  1  0
 15 14  1  0
 30 28  1  0
 30 31  2  0
 31 24  1  0
 25 24  2  0
 25 26  1  0
 13 12  2  0
 16 11  2  0
  8  7  1  0
  8  9  1  0
  9 10  1  0
  2  1  1  0
  2  3  1  0
  4  3  1  0
  4  5  1  0
  7  6  1  0
  1  6  1  0
  5  6  1  0
 28 26  2  0
 28 29  1  0
 26 27  1  0
 24 23  1  0
 12 11  1  0
 12 14  1  0
 11 10  1  0
M  CHG  1   6   1
M  END
$$$$
