
     RDKit          3D

 31 34  0  0  0  0  0  0  0  0999 V2000
    4.9042    2.7065    9.2519 C   0  0  0  0  0  0  0  0  0  0  0  0
    4.1904    3.6817   10.1412 C   0  0  0  0  0  0  0  0  0  0  0  0
    3.6955    4.7402    9.4195 O   0  0  0  0  0  0  0  0  0  0  0  0
    4.3981    4.8982    8.2510 C   0  0  0  0  0  0  0  0  0  0  0  0
    5.8863    4.6637    8.3964 C   0  0  0  0  0  0  0  0  0  0  0  0
    6.1377    3.2803    8.6989 N   0  0  0  0  0  4  0  0  0  0  0  0
    7.1554    3.0954    9.7017 C   0  0  0  0  0  0  0  0  0  0  0  0
    8.5535    3.3171    9.2233 C   0  0  0  0  0  0  0  0  0  0  0  0
    9.1833    2.0846    8.6082 C   0  0  0  0  0  0  0  0  0  0  0  0
   10.3689    2.4095    7.9088 O   0  0  0  0  0  0  0  0  0  0  0  0
   11.3718    1.5053    7.6935 C   0  0  0  0  0  0  0  0  0  0  0  0
   12.6873    1.8890    7.6870 C   0  0  0  0  0  0  0  0  0  0  0  0
   13.7077    1.0063    7.4756 C   0  0  0  0  0  0  0  0  0  0  0  0
   12.9433    3.2329    7.9080 O   0  0  0  0  0  0  0  0  0  0  0  0
   14.2863    3.6743    7.9507 C   0  0  0  0  0  0  0  0  0  0  0  0
   11.0665    0.1580    7.4746 C   0  0  0  0  0  0  0  0  0  0  0  0
   12.0841   -0.7471    7.2590 C   0  0  0  0  0  0  0  0  0  0  0  0
   13.4190   -0.3158    7.2601 C   0  0  0  0  0  0  0  0  0  0  0  0
   14.3772   -1.2347    7.0455 N   0  0  0  0  0  0  0  0  0  0  0  0
   14.0982   -2.5301    6.8335 C   0  0  0  0  0  0  0  0  0  0  0  0
   12.8151   -2.9096    6.8380 N   0  0  0  0  0  0  0  0  0  0  0  0
   11.7885   -2.0702    7.0424 C   0  0  0  0  0  0  0  0  0  0  0  0
   10.4558   -2.5170    7.0045 N   0  0  0  0  0  0  0  0  0  0  0  0
   10.2075   -3.9237    6.9497 C   0  0  0  0  0  0  0  0  0  0  0  0
   11.0611   -4.7844    7.5730 C   0  0  0  0  0  0  0  0  0  0  0  0
   10.8512   -6.1716    7.5134 C   0  0  0  0  0  0  0  0  0  0  0  0
   11.9611   -7.2771    8.3210 Cl  0  0  0  0  0  0  0  0  0  0  0  0
    9.7794   -6.6919    6.8249 C   0  0  0  0  0  0  0  0  0  0  0  0
    9.5547   -8.0112    6.7506 F   0  0  0  0  0  0  0  0  0  0  0  0
    8.9151   -5.7975    6.1936 C   0  0  0  0  0  0  0  0  0  0  0  0
    9.1281   -4.4385    6.2565 C   0  0  0  0  0  0  0  0  0  0  0  0
 20 19  2  0
 20 21  1  0
 18 13  1  0
 18 17  2  0
 18 19  1  0
 17 16  1  0
 17 22  1  0
 22 21  2  0
 22 23  1  0
 15 14  1  0
 30 28  1  0
 30 31  2  0
 31 24  1  0
 25 24  2  0
 25 26  1  0
 13 12  2  0
 16 11  2  0
  8  7  1  0
  8  9  1  0
  9 10  1  0
  2  1  1  0
  2  3  1  0
  4  3  1  0
  4  5  1  0
  7  6  1  0
  1  6  1  0
  5  6  1  0
 28 26  2  0
 28 29  1  0
 26 27  1  0
 24 23  1  0
 12 11  1  0
 12 14  1  0
 11 10  1  0
M  CHG  1   6   1
M  END
$$$$
