
     RDKit          3D

 31 34  0  0  0  0  0  0  0  0999 V2000
    6.5150    4.2299    8.5178 C   0  0  0  0  0  0  0  0  0  0  0  0
    5.6859    3.8236    9.7006 C   0  0  0  0  0  0  0  0  0  0  0  0
    5.1186    4.9173   10.3074 O   0  0  0  0  0  0  0  0  0  0  0  0
    5.8407    6.0514   10.0307 C   0  0  0  0  0  0  0  0  0  0  0  0
    7.3388    5.8355   10.0245 C   0  0  0  0  0  0  0  0  0  0  0  0
    7.7072    4.9842    8.9254 N   0  0  0  0  0  4  0  0  0  0  0  0
    8.7050    4.0058    9.2762 C   0  0  0  0  0  0  0  0  0  0  0  0
    9.3830    3.3582    8.1128 C   0  0  0  0  0  0  0  0  0  0  0  0
    9.8451    1.9436    8.3946 C   0  0  0  0  0  0  0  0  0  0  0  0
   11.2178    1.9106    8.7335 O   0  0  0  0  0  0  0  0  0  0  0  0
   12.0890    1.0003    8.2022 C   0  0  0  0  0  0  0  0  0  0  0  0
   13.3862    1.3382    7.9177 C   0  0  0  0  0  0  0  0  0  0  0  0
   14.2765    0.4483    7.3879 C   0  0  0  0  0  0  0  0  0  0  0  0
   13.7633    2.6425    8.1950 O   0  0  0  0  0  0  0  0  0  0  0  0
   15.1038    3.0298    7.9633 C   0  0  0  0  0  0  0  0  0  0  0  0
   11.6642   -0.3059    7.9384 C   0  0  0  0  0  0  0  0  0  0  0  0
   12.5495   -1.2175    7.4032 C   0  0  0  0  0  0  0  0  0  0  0  0
   13.8701   -0.8338    7.1257 C   0  0  0  0  0  0  0  0  0  0  0  0
   14.6972   -1.7573    6.6044 N   0  0  0  0  0  0  0  0  0  0  0  0
   14.3026   -3.0134    6.3458 C   0  0  0  0  0  0  0  0  0  0  0  0
   13.0366   -3.3480    6.6210 N   0  0  0  0  0  0  0  0  0  0  0  0
   12.1362   -2.5003    7.1415 C   0  0  0  0  0  0  0  0  0  0  0  0
   10.8082   -2.8957    7.3813 N   0  0  0  0  0  0  0  0  0  0  0  0
   10.4712   -4.2782    7.2451 C   0  0  0  0  0  0  0  0  0  0  0  0
   11.2604   -5.2255    7.8261 C   0  0  0  0  0  0  0  0  0  0  0  0
   10.9629   -6.5908    7.6866 C   0  0  0  0  0  0  0  0  0  0  0  0
   11.9900   -7.8089    8.4400 Cl  0  0  0  0  0  0  0  0  0  0  0  0
    9.8684   -7.0016    6.9608 C   0  0  0  0  0  0  0  0  0  0  0  0
    9.5608   -8.2975    6.8103 F   0  0  0  0  0  0  0  0  0  0  0  0
    9.0709   -6.0195    6.3736 C   0  0  0  0  0  0  0  0  0  0  0  0
    9.3696   -4.6827    6.5149 C   0  0  0  0  0  0  0  0  0  0  0  0
 20 19  2  0
 20 21  1  0
 18 13  1  0
 18 17  2  0
 18 19  1  0
 17 16  1  0
 17 22  1  0
 22 21  2  0
 22 23  1  0
 15 14  1  0
 30 28  1  0
 30 31  2  0
 31 24  1  0
 25 24  2  0
 25 26  1  0
 13 12  2  0
 16 11  2  0
  8  7  1  0
  8  9  1  0
  9 10  1  0
  2  1  1  0
  2  3  1  0
  4  3  1  0
  4  5  1  0
  7  6  1  0
  1  6  1  0
  5  6  1  0
 28 26  2  0
 28 29  1  0
 26 27  1  0
 24 23  1  0
 12 11  1  0
 12 14  1  0
 11 10  1  0
M  CHG  1   6   1
M  END
$$$$
