
     RDKit          3D

 31 34  0  0  0  0  0  0  0  0999 V2000
    6.6920    4.7016    9.8066 C   0  0  0  0  0  0  0  0  0  0  0  0
    6.7167    6.1993    9.7176 C   0  0  0  0  0  0  0  0  0  0  0  0
    5.5902    6.6775    9.0943 O   0  0  0  0  0  0  0  0  0  0  0  0
    5.0380    5.7128    8.2889 C   0  0  0  0  0  0  0  0  0  0  0  0
    6.0596    4.8763    7.5490 C   0  0  0  0  0  0  0  0  0  0  0  0
    6.8087    4.0783    8.4821 N   0  0  0  0  0  4  0  0  0  0  0  0
    8.2168    4.0272    8.1813 C   0  0  0  0  0  0  0  0  0  0  0  0
    8.9706    2.9519    8.8940 C   0  0  0  0  0  0  0  0  0  0  0  0
    9.8070    2.0889    7.9723 C   0  0  0  0  0  0  0  0  0  0  0  0
   11.1652    2.0839    8.3670 O   0  0  0  0  0  0  0  0  0  0  0  0
   12.0795    1.2028    7.8595 C   0  0  0  0  0  0  0  0  0  0  0  0
   13.3675    1.5875    7.5934 C   0  0  0  0  0  0  0  0  0  0  0  0
   14.3001    0.7275    7.0876 C   0  0  0  0  0  0  0  0  0  0  0  0
   13.6897    2.9079    7.8637 O   0  0  0  0  0  0  0  0  0  0  0  0
   15.0525    3.2840    7.9032 C   0  0  0  0  0  0  0  0  0  0  0  0
   11.7095   -0.1212    7.6019 C   0  0  0  0  0  0  0  0  0  0  0  0
   12.6381   -1.0032    7.0908 C   0  0  0  0  0  0  0  0  0  0  0  0
   13.9476   -0.5718    6.8316 C   0  0  0  0  0  0  0  0  0  0  0  0
   14.8182   -1.4676    6.3336 N   0  0  0  0  0  0  0  0  0  0  0  0
   14.4764   -2.7404    6.0811 C   0  0  0  0  0  0  0  0  0  0  0  0
   13.2195   -3.1207    6.3385 N   0  0  0  0  0  0  0  0  0  0  0  0
   12.2786   -2.3033    6.8352 C   0  0  0  0  0  0  0  0  0  0  0  0
   10.9628   -2.7471    7.0568 N   0  0  0  0  0  0  0  0  0  0  0  0
   10.6908   -4.1481    6.9751 C   0  0  0  0  0  0  0  0  0  0  0  0
   11.5187   -5.0336    7.5982 C   0  0  0  0  0  0  0  0  0  0  0  0
   11.2855   -6.4158    7.5128 C   0  0  0  0  0  0  0  0  0  0  0  0
   12.3623   -7.5536    8.3203 Cl  0  0  0  0  0  0  0  0  0  0  0  0
   10.2163   -6.9058    6.7985 C   0  0  0  0  0  0  0  0  0  0  0  0
    9.9698   -8.2196    6.6992 F   0  0  0  0  0  0  0  0  0  0  0  0
    9.3785   -5.9862    6.1678 C   0  0  0  0  0  0  0  0  0  0  0  0
    9.6142   -4.6324    6.2562 C   0  0  0  0  0  0  0  0  0  0  0  0
 20 19  2  0
 20 21  1  0
 18 13  1  0
 18 17  2  0
 18 19  1  0
 17 16  1  0
 17 22  1  0
 22 21  2  0
 22 23  1  0
 15 14  1  0
 30 28  1  0
 30 31  2  0
 31 24  1  0
 25 24  2  0
 25 26  1  0
 13 12  2  0
 16 11  2  0
  8  7  1  0
  8  9  1  0
  9 10  1  0
  2  1  1  0
  2  3  1  0
  4  3  1  0
  4  5  1  0
  7  6  1  0
  1  6  1  0
  5  6  1  0
 28 26  2  0
 28 29  1  0
 26 27  1  0
 24 23  1  0
 12 11  1  0
 12 14  1  0
 11 10  1  0
M  CHG  1   6   1
M  END
$$$$
