
     RDKit          3D

 31 34  0  0  0  0  0  0  0  0999 V2000
    6.6724    5.3509    8.0379 C   0  0  0  0  0  0  0  0  0  0  0  0
    5.8674    4.9630    6.8325 C   0  0  0  0  0  0  0  0  0  0  0  0
    4.5827    4.6259    7.1819 O   0  0  0  0  0  0  0  0  0  0  0  0
    4.5274    4.2324    8.4958 C   0  0  0  0  0  0  0  0  0  0  0  0
    5.7134    3.4009    8.9350 C   0  0  0  0  0  0  0  0  0  0  0  0
    6.9064    4.2041    8.9248 N   0  0  0  0  0  4  0  0  0  0  0  0
    8.0524    3.5098    8.3952 C   0  0  0  0  0  0  0  0  0  0  0  0
    8.5216    2.3557    9.2201 C   0  0  0  0  0  0  0  0  0  0  0  0
    9.3213    1.3377    8.4339 C   0  0  0  0  0  0  0  0  0  0  0  0
   10.5873    1.8517    8.0684 O   0  0  0  0  0  0  0  0  0  0  0  0
   11.6463    1.0490    7.7460 C   0  0  0  0  0  0  0  0  0  0  0  0
   12.9139    1.5558    7.6278 C   0  0  0  0  0  0  0  0  0  0  0  0
   13.9886    0.7762    7.3080 C   0  0  0  0  0  0  0  0  0  0  0  0
   13.0623    2.9156    7.8503 O   0  0  0  0  0  0  0  0  0  0  0  0
   14.3540    3.4850    7.7626 C   0  0  0  0  0  0  0  0  0  0  0  0
   11.4494   -0.3188    7.5300 C   0  0  0  0  0  0  0  0  0  0  0  0
   12.5230   -1.1210    7.2059 C   0  0  0  0  0  0  0  0  0  0  0  0
   13.8062   -0.5651    7.0943 C   0  0  0  0  0  0  0  0  0  0  0  0
   14.8223   -1.3866    6.7763 N   0  0  0  0  0  0  0  0  0  0  0  0
   14.6474   -2.7003    6.5658 C   0  0  0  0  0  0  0  0  0  0  0  0
   13.4112   -3.1999    6.6791 N   0  0  0  0  0  0  0  0  0  0  0  0
   12.3338   -2.4638    6.9917 C   0  0  0  0  0  0  0  0  0  0  0  0
   11.0508   -3.0346    7.0660 N   0  0  0  0  0  0  0  0  0  0  0  0
   10.9380   -4.4587    7.1193 C   0  0  0  0  0  0  0  0  0  0  0  0
    9.8807   -5.0747    6.5189 C   0  0  0  0  0  0  0  0  0  0  0  0
    9.7357   -6.4703    6.5778 C   0  0  0  0  0  0  0  0  0  0  0  0
    8.3644   -7.2582    5.8000 Cl  0  0  0  0  0  0  0  0  0  0  0  0
   10.6579   -7.2458    7.2425 C   0  0  0  0  0  0  0  0  0  0  0  0
   10.5446   -8.5794    7.3156 F   0  0  0  0  0  0  0  0  0  0  0  0
   11.7342   -6.5997    7.8505 C   0  0  0  0  0  0  0  0  0  0  0  0
   11.8690   -5.2307    7.7884 C   0  0  0  0  0  0  0  0  0  0  0  0
 20 19  2  0
 20 21  1  0
 18 13  1  0
 18 17  2  0
 18 19  1  0
 17 16  1  0
 17 22  1  0
 22 21  2  0
 22 23  1  0
 15 14  1  0
 30 28  1  0
 30 31  2  0
 31 24  1  0
 25 24  2  0
 25 26  1  0
 13 12  2  0
 16 11  2  0
  8  7  1  0
  8  9  1  0
  9 10  1  0
  2  1  1  0
  2  3  1  0
  4  3  1  0
  4  5  1  0
  7  6  1  0
  1  6  1  0
  5  6  1  0
 28 26  2  0
 28 29  1  0
 26 27  1  0
 24 23  1  0
 12 11  1  0
 12 14  1  0
 11 10  1  0
M  CHG  1   6   1
M  END
$$$$
