
     RDKit          3D

 31 34  0  0  0  0  0  0  0  0999 V2000
    7.3368    5.6341   10.0302 C   0  0  0  0  0  0  0  0  0  0  0  0
    6.5935    6.3018    8.9107 C   0  0  0  0  0  0  0  0  0  0  0  0
    5.3022    5.8411    8.8290 O   0  0  0  0  0  0  0  0  0  0  0  0
    5.1981    4.5941    9.3932 C   0  0  0  0  0  0  0  0  0  0  0  0
    6.3812    3.6940    9.1085 C   0  0  0  0  0  0  0  0  0  0  0  0
    7.5562    4.2076    9.7597 N   0  0  0  0  0  4  0  0  0  0  0  0
    8.7387    4.1279    8.9404 C   0  0  0  0  0  0  0  0  0  0  0  0
    8.8107    2.9224    8.0605 C   0  0  0  0  0  0  0  0  0  0  0  0
    9.8061    1.8854    8.5381 C   0  0  0  0  0  0  0  0  0  0  0  0
   11.1314    2.2614    8.2180 O   0  0  0  0  0  0  0  0  0  0  0  0
   12.0488    1.3809    7.7151 C   0  0  0  0  0  0  0  0  0  0  0  0
   13.3349    1.7692    7.4450 C   0  0  0  0  0  0  0  0  0  0  0  0
   14.2705    0.9099    6.9437 C   0  0  0  0  0  0  0  0  0  0  0  0
   13.6519    3.0927    7.7064 O   0  0  0  0  0  0  0  0  0  0  0  0
   14.9795    3.5318    7.4941 C   0  0  0  0  0  0  0  0  0  0  0  0
   11.6842    0.0537    7.4665 C   0  0  0  0  0  0  0  0  0  0  0  0
   12.6158   -0.8277    6.9600 C   0  0  0  0  0  0  0  0  0  0  0  0
   13.9232   -0.3925    6.6965 C   0  0  0  0  0  0  0  0  0  0  0  0
   14.7969   -1.2879    6.2032 N   0  0  0  0  0  0  0  0  0  0  0  0
   14.4602   -2.5637    5.9593 C   0  0  0  0  0  0  0  0  0  0  0  0
   13.2052   -2.9476    6.2206 N   0  0  0  0  0  0  0  0  0  0  0  0
   12.2614   -2.1309    6.7132 C   0  0  0  0  0  0  0  0  0  0  0  0
   10.9478   -2.5788    6.9391 N   0  0  0  0  0  0  0  0  0  0  0  0
   10.6522   -3.9623    6.7341 C   0  0  0  0  0  0  0  0  0  0  0  0
   11.5245   -4.9114    7.1769 C   0  0  0  0  0  0  0  0  0  0  0  0
   11.2674   -6.2759    6.9664 C   0  0  0  0  0  0  0  0  0  0  0  0
   12.4018   -7.4962    7.5409 Cl  0  0  0  0  0  0  0  0  0  0  0  0
   10.1295   -6.6839    6.3089 C   0  0  0  0  0  0  0  0  0  0  0  0
    9.8587   -7.9789    6.0933 F   0  0  0  0  0  0  0  0  0  0  0  0
    9.2471   -5.7000    5.8632 C   0  0  0  0  0  0  0  0  0  0  0  0
    9.5067   -4.3641    6.0734 C   0  0  0  0  0  0  0  0  0  0  0  0
 20 19  2  0
 20 21  1  0
 18 13  1  0
 18 17  2  0
 18 19  1  0
 17 16  1  0
 17 22  1  0
 22 21  2  0
 22 23  1  0
 15 14  1  0
 30 28  1  0
 30 31  2  0
 31 24  1  0
 25 24  2  0
 25 26  1  0
 13 12  2  0
 16 11  2  0
  8  7  1  0
  8  9  1  0
  9 10  1  0
  2  1  1  0
  2  3  1  0
  4  3  1  0
  4  5  1  0
  7  6  1  0
  1  6  1  0
  5  6  1  0
 28 26  2  0
 28 29  1  0
 26 27  1  0
 24 23  1  0
 12 11  1  0
 12 14  1  0
 11 10  1  0
M  CHG  1   6   1
M  END
$$$$
