
     RDKit          3D

 31 34  0  0  0  0  0  0  0  0999 V2000
    6.5634    4.9303    9.5931 C   0  0  0  0  0  0  0  0  0  0  0  0
    6.8161    6.3980    9.7763 C   0  0  0  0  0  0  0  0  0  0  0  0
    5.9686    7.1478    8.9980 O   0  0  0  0  0  0  0  0  0  0  0  0
    5.5193    6.4139    7.9286 C   0  0  0  0  0  0  0  0  0  0  0  0
    6.5740    5.5172    7.3166 C   0  0  0  0  0  0  0  0  0  0  0  0
    6.9358    4.4807    8.2457 N   0  0  0  0  0  4  0  0  0  0  0  0
    8.3527    4.2220    8.2823 C   0  0  0  0  0  0  0  0  0  0  0  0
    8.7368    2.9296    8.9263 C   0  0  0  0  0  0  0  0  0  0  0  0
    9.5984    2.0490    8.0453 C   0  0  0  0  0  0  0  0  0  0  0  0
   10.9668    2.1688    8.3826 O   0  0  0  0  0  0  0  0  0  0  0  0
   11.9172    1.2913    7.9393 C   0  0  0  0  0  0  0  0  0  0  0  0
   13.2138    1.6870    7.7394 C   0  0  0  0  0  0  0  0  0  0  0  0
   14.1822    0.8308    7.2985 C   0  0  0  0  0  0  0  0  0  0  0  0
   13.5064    3.0146    8.0082 O   0  0  0  0  0  0  0  0  0  0  0  0
   14.8612    3.4121    8.0910 C   0  0  0  0  0  0  0  0  0  0  0  0
   11.5762   -0.0403    7.6806 C   0  0  0  0  0  0  0  0  0  0  0  0
   12.5411   -0.9185    7.2345 C   0  0  0  0  0  0  0  0  0  0  0  0
   13.8583   -0.4758    7.0421 C   0  0  0  0  0  0  0  0  0  0  0  0
   14.7647   -1.3684    6.6060 N   0  0  0  0  0  0  0  0  0  0  0  0
   14.4510   -2.6484    6.3533 C   0  0  0  0  0  0  0  0  0  0  0  0
   13.1859   -3.0395    6.5461 N   0  0  0  0  0  0  0  0  0  0  0  0
   12.2102   -2.2261    6.9781 C   0  0  0  0  0  0  0  0  0  0  0  0
   10.8890   -2.6818    7.1327 N   0  0  0  0  0  0  0  0  0  0  0  0
   10.6616   -4.0865    7.2681 C   0  0  0  0  0  0  0  0  0  0  0  0
   11.6948   -4.9576    7.0901 C   0  0  0  0  0  0  0  0  0  0  0  0
   11.4909   -6.3431    7.1946 C   0  0  0  0  0  0  0  0  0  0  0  0
   12.8324   -7.4621    6.9612 Cl  0  0  0  0  0  0  0  0  0  0  0  0
   10.2442   -6.8511    7.4793 C   0  0  0  0  0  0  0  0  0  0  0  0
   10.0202   -8.1685    7.5843 F   0  0  0  0  0  0  0  0  0  0  0  0
    9.1982   -5.9461    7.6594 C   0  0  0  0  0  0  0  0  0  0  0  0
    9.4063   -4.5889    7.5549 C   0  0  0  0  0  0  0  0  0  0  0  0
 20 19  2  0
 20 21  1  0
 18 13  1  0
 18 17  2  0
 18 19  1  0
 17 16  1  0
 17 22  1  0
 22 21  2  0
 22 23  1  0
 15 14  1  0
 30 28  1  0
 30 31  2  0
 31 24  1  0
 25 24  2  0
 25 26  1  0
 13 12  2  0
 16 11  2  0
  8  7  1  0
  8  9  1  0
  9 10  1  0
  2  1  1  0
  2  3  1  0
  4  3  1  0
  4  5  1  0
  7  6  1  0
  1  6  1  0
  5  6  1  0
 28 26  2  0
 28 29  1  0
 26 27  1  0
 24 23  1  0
 12 11  1  0
 12 14  1  0
 11 10  1  0
M  CHG  1   6   1
M  END
$$$$
