
     RDKit          3D

 31 34  0  0  0  0  0  0  0  0999 V2000
    6.5275    4.8243    7.8208 C   0  0  0  0  0  0  0  0  0  0  0  0
    5.3170    3.9424    7.7287 C   0  0  0  0  0  0  0  0  0  0  0  0
    4.3897    4.2719    8.6868 O   0  0  0  0  0  0  0  0  0  0  0  0
    4.9929    4.9062    9.7442 C   0  0  0  0  0  0  0  0  0  0  0  0
    6.3437    4.3309   10.1119 C   0  0  0  0  0  0  0  0  0  0  0  0
    7.2860    4.5762    9.0534 N   0  0  0  0  0  4  0  0  0  0  0  0
    8.1406    3.4483    8.7829 C   0  0  0  0  0  0  0  0  0  0  0  0
    9.3318    3.7545    7.9345 C   0  0  0  0  0  0  0  0  0  0  0  0
   10.0055    2.5201    7.3721 C   0  0  0  0  0  0  0  0  0  0  0  0
   11.2074    2.2335    8.0604 O   0  0  0  0  0  0  0  0  0  0  0  0
   12.0745    1.2555    7.6584 C   0  0  0  0  0  0  0  0  0  0  0  0
   13.3923    1.5326    7.4046 C   0  0  0  0  0  0  0  0  0  0  0  0
   14.2791    0.5746    7.0033 C   0  0  0  0  0  0  0  0  0  0  0  0
   13.7945    2.8477    7.5754 O   0  0  0  0  0  0  0  0  0  0  0  0
   15.1773    3.1344    7.6535 C   0  0  0  0  0  0  0  0  0  0  0  0
   11.6242   -0.0590    7.4990 C   0  0  0  0  0  0  0  0  0  0  0  0
   12.5055   -1.0390    7.0940 C   0  0  0  0  0  0  0  0  0  0  0  0
   13.8477   -0.7162    6.8440 C   0  0  0  0  0  0  0  0  0  0  0  0
   14.6700   -1.7052    6.4511 N   0  0  0  0  0  0  0  0  0  0  0  0
   14.2510   -2.9702    6.2936 C   0  0  0  0  0  0  0  0  0  0  0  0
   12.9648   -3.2457    6.5393 N   0  0  0  0  0  0  0  0  0  0  0  0
   12.0671   -2.3303    6.9350 C   0  0  0  0  0  0  0  0  0  0  0  0
   10.7190   -2.6681    7.1483 N   0  0  0  0  0  0  0  0  0  0  0  0
   10.3603   -4.0510    7.1991 C   0  0  0  0  0  0  0  0  0  0  0  0
   11.1942   -4.9425    7.8055 C   0  0  0  0  0  0  0  0  0  0  0  0
   10.8748   -6.3094    7.8473 C   0  0  0  0  0  0  0  0  0  0  0  0
   11.9598   -7.4552    8.6321 Cl  0  0  0  0  0  0  0  0  0  0  0  0
    9.7132   -6.7780    7.2775 C   0  0  0  0  0  0  0  0  0  0  0  0
    9.3832   -8.0769    7.3017 F   0  0  0  0  0  0  0  0  0  0  0  0
    8.8707   -5.8524    6.6619 C   0  0  0  0  0  0  0  0  0  0  0  0
    9.1913   -4.5138    6.6249 C   0  0  0  0  0  0  0  0  0  0  0  0
 20 19  2  0
 20 21  1  0
 18 13  1  0
 18 17  2  0
 18 19  1  0
 17 16  1  0
 17 22  1  0
 22 21  2  0
 22 23  1  0
 15 14  1  0
 30 28  1  0
 30 31  2  0
 31 24  1  0
 25 24  2  0
 25 26  1  0
 13 12  2  0
 16 11  2  0
  8  7  1  0
  8  9  1  0
  9 10  1  0
  2  1  1  0
  2  3  1  0
  4  3  1  0
  4  5  1  0
  7  6  1  0
  1  6  1  0
  5  6  1  0
 28 26  2  0
 28 29  1  0
 26 27  1  0
 24 23  1  0
 12 11  1  0
 12 14  1  0
 11 10  1  0
M  CHG  1   6   1
M  END
$$$$
