
     RDKit          3D

 31 34  0  0  0  0  0  0  0  0999 V2000
    4.8788    3.1865    8.1871 C   0  0  0  0  0  0  0  0  0  0  0  0
    4.4339    4.2129    9.1872 C   0  0  0  0  0  0  0  0  0  0  0  0
    4.4913    5.4787    8.6572 O   0  0  0  0  0  0  0  0  0  0  0  0
    5.3891    5.5274    7.6200 C   0  0  0  0  0  0  0  0  0  0  0  0
    6.6399    4.7083    7.8556 C   0  0  0  0  0  0  0  0  0  0  0  0
    6.3110    3.3085    7.8864 N   0  0  0  0  0  4  0  0  0  0  0  0
    7.0051    2.5861    8.9218 C   0  0  0  0  0  0  0  0  0  0  0  0
    8.4816    2.8121    8.9610 C   0  0  0  0  0  0  0  0  0  0  0  0
    9.2421    2.0131    7.9231 C   0  0  0  0  0  0  0  0  0  0  0  0
   10.6205    2.3295    7.9414 O   0  0  0  0  0  0  0  0  0  0  0  0
   11.5907    1.4279    7.6012 C   0  0  0  0  0  0  0  0  0  0  0  0
   12.8993    1.8092    7.4602 C   0  0  0  0  0  0  0  0  0  0  0  0
   13.8874    0.9291    7.1225 C   0  0  0  0  0  0  0  0  0  0  0  0
   13.1830    3.1480    7.6786 O   0  0  0  0  0  0  0  0  0  0  0  0
   14.5217    3.5308    7.9269 C   0  0  0  0  0  0  0  0  0  0  0  0
   11.2581    0.0858    7.3902 C   0  0  0  0  0  0  0  0  0  0  0  0
   12.2429   -0.8167    7.0481 C   0  0  0  0  0  0  0  0  0  0  0  0
   13.5719   -0.3879    6.9134 C   0  0  0  0  0  0  0  0  0  0  0  0
   14.4976   -1.3041    6.5785 N   0  0  0  0  0  0  0  0  0  0  0  0
   14.1922   -2.5944    6.3725 C   0  0  0  0  0  0  0  0  0  0  0  0
   12.9155   -2.9717    6.5081 N   0  0  0  0  0  0  0  0  0  0  0  0
   11.9204   -2.1347    6.8388 C   0  0  0  0  0  0  0  0  0  0  0  0
   10.5896   -2.5782    6.9362 N   0  0  0  0  0  0  0  0  0  0  0  0
   10.3285   -3.9812    6.8530 C   0  0  0  0  0  0  0  0  0  0  0  0
   11.1214   -4.8566    7.5335 C   0  0  0  0  0  0  0  0  0  0  0  0
   10.8992   -6.2406    7.4485 C   0  0  0  0  0  0  0  0  0  0  0  0
   11.9304   -7.3652    8.3305 Cl  0  0  0  0  0  0  0  0  0  0  0  0
    9.8765   -6.7427    6.6769 C   0  0  0  0  0  0  0  0  0  0  0  0
    9.6416   -8.0586    6.5765 F   0  0  0  0  0  0  0  0  0  0  0  0
    9.0741   -5.8334    5.9878 C   0  0  0  0  0  0  0  0  0  0  0  0
    9.2987   -4.4777    6.0762 C   0  0  0  0  0  0  0  0  0  0  0  0
 20 19  2  0
 20 21  1  0
 18 13  1  0
 18 17  2  0
 18 19  1  0
 17 16  1  0
 17 22  1  0
 22 21  2  0
 22 23  1  0
 15 14  1  0
 30 28  1  0
 30 31  2  0
 31 24  1  0
 25 24  2  0
 25 26  1  0
 13 12  2  0
 16 11  2  0
  8  7  1  0
  8  9  1  0
  9 10  1  0
  2  1  1  0
  2  3  1  0
  4  3  1  0
  4  5  1  0
  7  6  1  0
  1  6  1  0
  5  6  1  0
 28 26  2  0
 28 29  1  0
 26 27  1  0
 24 23  1  0
 12 11  1  0
 12 14  1  0
 11 10  1  0
M  CHG  1   6   1
M  END
$$$$
