
     RDKit          3D

 31 34  0  0  0  0  0  0  0  0999 V2000
    7.9212    5.7070   10.9986 C   0  0  0  0  0  0  0  0  0  0  0  0
    8.8525    6.8835   11.0110 C   0  0  0  0  0  0  0  0  0  0  0  0
    8.2917    7.9662   10.3788 O   0  0  0  0  0  0  0  0  0  0  0  0
    7.3274    7.5601    9.4903 C   0  0  0  0  0  0  0  0  0  0  0  0
    7.6847    6.2977    8.7355 C   0  0  0  0  0  0  0  0  0  0  0  0
    7.7308    5.1812    9.6408 N   0  0  0  0  0  4  0  0  0  0  0  0
    8.8384    4.2944    9.3909 C   0  0  0  0  0  0  0  0  0  0  0  0
    8.8704    3.7037    8.0188 C   0  0  0  0  0  0  0  0  0  0  0  0
    9.6330    2.3973    7.9419 C   0  0  0  0  0  0  0  0  0  0  0  0
   11.0287    2.6132    8.0190 O   0  0  0  0  0  0  0  0  0  0  0  0
   11.9444    1.6822    7.6133 C   0  0  0  0  0  0  0  0  0  0  0  0
   13.2540    2.0203    7.3934 C   0  0  0  0  0  0  0  0  0  0  0  0
   14.1885    1.1101    6.9892 C   0  0  0  0  0  0  0  0  0  0  0  0
   13.5964    3.3468    7.6021 O   0  0  0  0  0  0  0  0  0  0  0  0
   14.9182    3.6568    7.9986 C   0  0  0  0  0  0  0  0  0  0  0  0
   11.5536    0.3540    7.4150 C   0  0  0  0  0  0  0  0  0  0  0  0
   12.4837   -0.5784    7.0066 C   0  0  0  0  0  0  0  0  0  0  0  0
   13.8157   -0.1937    6.7920 C   0  0  0  0  0  0  0  0  0  0  0  0
   14.6869   -1.1378    6.3943 N   0  0  0  0  0  0  0  0  0  0  0  0
   14.3253   -2.4153    6.1996 C   0  0  0  0  0  0  0  0  0  0  0  0
   13.0473   -2.7503    6.4121 N   0  0  0  0  0  0  0  0  0  0  0  0
   12.1039   -1.8829    6.8094 C   0  0  0  0  0  0  0  0  0  0  0  0
   10.7673   -2.2820    6.9869 N   0  0  0  0  0  0  0  0  0  0  0  0
   10.4500   -3.6724    6.8888 C   0  0  0  0  0  0  0  0  0  0  0  0
   11.2911   -4.5964    7.4336 C   0  0  0  0  0  0  0  0  0  0  0  0
   11.0128   -5.9690    7.3296 C   0  0  0  0  0  0  0  0  0  0  0  0
   12.1068   -7.1568    8.0356 Cl  0  0  0  0  0  0  0  0  0  0  0  0
    9.8853   -6.4105    6.6759 C   0  0  0  0  0  0  0  0  0  0  0  0
    9.5948   -7.7140    6.5607 F   0  0  0  0  0  0  0  0  0  0  0  0
    9.0349   -5.4519    6.1251 C   0  0  0  0  0  0  0  0  0  0  0  0
    9.3150   -4.1079    6.2312 C   0  0  0  0  0  0  0  0  0  0  0  0
 20 19  2  0
 20 21  1  0
 18 13  1  0
 18 17  2  0
 18 19  1  0
 17 16  1  0
 17 22  1  0
 22 21  2  0
 22 23  1  0
 15 14  1  0
 30 28  1  0
 30 31  2  0
 31 24  1  0
 25 24  2  0
 25 26  1  0
 13 12  2  0
 16 11  2  0
  8  7  1  0
  8  9  1  0
  9 10  1  0
  2  1  1  0
  2  3  1  0
  4  3  1  0
  4  5  1  0
  7  6  1  0
  1  6  1  0
  5  6  1  0
 28 26  2  0
 28 29  1  0
 26 27  1  0
 24 23  1  0
 12 11  1  0
 12 14  1  0
 11 10  1  0
M  CHG  1   6   1
M  END
$$$$
