
     RDKit          3D

 31 34  0  0  0  0  0  0  0  0999 V2000
    6.8569    5.1449   10.1870 C   0  0  0  0  0  0  0  0  0  0  0  0
    7.1356    6.6186   10.1410 C   0  0  0  0  0  0  0  0  0  0  0  0
    6.2341    7.2685    9.3340 O   0  0  0  0  0  0  0  0  0  0  0  0
    5.6939    6.4011    8.4175 C   0  0  0  0  0  0  0  0  0  0  0  0
    6.6883    5.4072    7.8569 C   0  0  0  0  0  0  0  0  0  0  0  0
    7.1156    4.5041    8.8913 N   0  0  0  0  0  4  0  0  0  0  0  0
    8.5286    4.2255    8.8523 C   0  0  0  0  0  0  0  0  0  0  0  0
    8.9282    3.1477    7.8977 C   0  0  0  0  0  0  0  0  0  0  0  0
    9.7502    2.0486    8.5382 C   0  0  0  0  0  0  0  0  0  0  0  0
   11.1344    2.3250    8.4484 O   0  0  0  0  0  0  0  0  0  0  0  0
   12.0388    1.4217    7.9626 C   0  0  0  0  0  0  0  0  0  0  0  0
   13.3330    1.7836    7.6949 C   0  0  0  0  0  0  0  0  0  0  0  0
   14.2560    0.9013    7.2104 C   0  0  0  0  0  0  0  0  0  0  0  0
   13.6720    3.1047    7.9406 O   0  0  0  0  0  0  0  0  0  0  0  0
   15.0119    3.5135    7.7459 C   0  0  0  0  0  0  0  0  0  0  0  0
   11.6520    0.0980    7.7294 C   0  0  0  0  0  0  0  0  0  0  0  0
   12.5706   -0.8064    7.2401 C   0  0  0  0  0  0  0  0  0  0  0  0
   13.8870   -0.3979    6.9785 C   0  0  0  0  0  0  0  0  0  0  0  0
   14.7474   -1.3151    6.5022 N   0  0  0  0  0  0  0  0  0  0  0  0
   14.3895   -2.5879    6.2733 C   0  0  0  0  0  0  0  0  0  0  0  0
   13.1264   -2.9461    6.5323 N   0  0  0  0  0  0  0  0  0  0  0  0
   12.1946   -2.1063    7.0085 C   0  0  0  0  0  0  0  0  0  0  0  0
   10.8719   -2.5278    7.2327 N   0  0  0  0  0  0  0  0  0  0  0  0
   10.5674   -3.9190    7.1093 C   0  0  0  0  0  0  0  0  0  0  0  0
   11.3676   -4.8413    7.7150 C   0  0  0  0  0  0  0  0  0  0  0  0
   11.1023   -6.2145    7.5886 C   0  0  0  0  0  0  0  0  0  0  0  0
   12.1434   -7.4000    8.3740 Cl  0  0  0  0  0  0  0  0  0  0  0  0
   10.0289   -6.6585    6.8510 C   0  0  0  0  0  0  0  0  0  0  0  0
    9.7521   -7.9627    6.7125 F   0  0  0  0  0  0  0  0  0  0  0  0
    9.2196   -5.7017    6.2385 C   0  0  0  0  0  0  0  0  0  0  0  0
    9.4868   -4.3570    6.3670 C   0  0  0  0  0  0  0  0  0  0  0  0
 20 19  2  0
 20 21  1  0
 18 13  1  0
 18 17  2  0
 18 19  1  0
 17 16  1  0
 17 22  1  0
 22 21  2  0
 22 23  1  0
 15 14  1  0
 30 28  1  0
 30 31  2  0
 31 24  1  0
 25 24  2  0
 25 26  1  0
 13 12  2  0
 16 11  2  0
  8  7  1  0
  8  9  1  0
  9 10  1  0
  2  1  1  0
  2  3  1  0
  4  3  1  0
  4  5  1  0
  7  6  1  0
  1  6  1  0
  5  6  1  0
 28 26  2  0
 28 29  1  0
 26 27  1  0
 24 23  1  0
 12 11  1  0
 12 14  1  0
 11 10  1  0
M  CHG  1   6   1
M  END
$$$$
