
     RDKit          3D

 31 34  0  0  0  0  0  0  0  0999 V2000
    6.2092    4.7338    7.2423 C   0  0  0  0  0  0  0  0  0  0  0  0
    4.8459    4.6156    7.8580 C   0  0  0  0  0  0  0  0  0  0  0  0
    4.5967    5.6598    8.7148 O   0  0  0  0  0  0  0  0  0  0  0  0
    5.7728    6.2013    9.1705 C   0  0  0  0  0  0  0  0  0  0  0  0
    6.8458    5.1743    9.4621 C   0  0  0  0  0  0  0  0  0  0  0  0
    7.2716    4.5488    8.2391 N   0  0  0  0  0  4  0  0  0  0  0  0
    7.4636    3.1267    8.3669 C   0  0  0  0  0  0  0  0  0  0  0  0
    8.7045    2.7255    9.0962 C   0  0  0  0  0  0  0  0  0  0  0  0
    9.5002    1.6495    8.3868 C   0  0  0  0  0  0  0  0  0  0  0  0
   10.8686    1.9965    8.3007 O   0  0  0  0  0  0  0  0  0  0  0  0
   11.8308    1.1146    7.8928 C   0  0  0  0  0  0  0  0  0  0  0  0
   13.1342    1.5063    7.7334 C   0  0  0  0  0  0  0  0  0  0  0  0
   14.1143    0.6458    7.3285 C   0  0  0  0  0  0  0  0  0  0  0  0
   13.4211    2.8346    8.0053 O   0  0  0  0  0  0  0  0  0  0  0  0
   14.7593    3.2799    7.8985 C   0  0  0  0  0  0  0  0  0  0  0  0
   11.4952   -0.2174    7.6295 C   0  0  0  0  0  0  0  0  0  0  0  0
   12.4719   -1.1000    7.2193 C   0  0  0  0  0  0  0  0  0  0  0  0
   13.7958   -0.6612    7.0678 C   0  0  0  0  0  0  0  0  0  0  0  0
   14.7137   -1.5580    6.6657 N   0  0  0  0  0  0  0  0  0  0  0  0
   14.4053   -2.8385    6.4090 C   0  0  0  0  0  0  0  0  0  0  0  0
   13.1336   -3.2257    6.5623 N   0  0  0  0  0  0  0  0  0  0  0  0
   12.1463   -2.4080    6.9584 C   0  0  0  0  0  0  0  0  0  0  0  0
   10.8196   -2.8599    7.0720 N   0  0  0  0  0  0  0  0  0  0  0  0
   10.5684   -4.2658    7.0099 C   0  0  0  0  0  0  0  0  0  0  0  0
   11.3825   -5.1271    7.6832 C   0  0  0  0  0  0  0  0  0  0  0  0
   11.1700   -6.5137    7.6183 C   0  0  0  0  0  0  0  0  0  0  0  0
   12.2287   -7.6201    8.4908 Cl  0  0  0  0  0  0  0  0  0  0  0  0
   10.1354   -7.0327    6.8741 C   0  0  0  0  0  0  0  0  0  0  0  0
    9.9093   -8.3514    6.7934 F   0  0  0  0  0  0  0  0  0  0  0  0
    9.3113   -6.1376    6.1921 C   0  0  0  0  0  0  0  0  0  0  0  0
    9.5266   -4.7792    6.2607 C   0  0  0  0  0  0  0  0  0  0  0  0
 20 19  2  0
 20 21  1  0
 18 13  1  0
 18 17  2  0
 18 19  1  0
 17 16  1  0
 17 22  1  0
 22 21  2  0
 22 23  1  0
 15 14  1  0
 30 28  1  0
 30 31  2  0
 31 24  1  0
 25 24  2  0
 25 26  1  0
 13 12  2  0
 16 11  2  0
  8  7  1  0
  8  9  1  0
  9 10  1  0
  2  1  1  0
  2  3  1  0
  4  3  1  0
  4  5  1  0
  7  6  1  0
  1  6  1  0
  5  6  1  0
 28 26  2  0
 28 29  1  0
 26 27  1  0
 24 23  1  0
 12 11  1  0
 12 14  1  0
 11 10  1  0
M  CHG  1   6   1
M  END
$$$$
