
     RDKit          3D

 31 34  0  0  0  0  0  0  0  0999 V2000
    5.7365    3.6676    7.7833 C   0  0  0  0  0  0  0  0  0  0  0  0
    4.8554    3.6988    8.9975 C   0  0  0  0  0  0  0  0  0  0  0  0
    4.4325    4.9767    9.2703 O   0  0  0  0  0  0  0  0  0  0  0  0
    5.2978    5.8966    8.7325 C   0  0  0  0  0  0  0  0  0  0  0  0
    6.7550    5.5023    8.8432 C   0  0  0  0  0  0  0  0  0  0  0  0
    7.0147    4.3492    8.0240 N   0  0  0  0  0  4  0  0  0  0  0  0
    7.8746    3.3841    8.6604 C   0  0  0  0  0  0  0  0  0  0  0  0
    9.0174    2.9137    7.8206 C   0  0  0  0  0  0  0  0  0  0  0  0
    9.8115    1.7914    8.4561 C   0  0  0  0  0  0  0  0  0  0  0  0
   11.2016    2.0418    8.3833 O   0  0  0  0  0  0  0  0  0  0  0  0
   12.0865    1.1494    7.8444 C   0  0  0  0  0  0  0  0  0  0  0  0
   13.3583    1.5268    7.5010 C   0  0  0  0  0  0  0  0  0  0  0  0
   14.2615    0.6556    6.9624 C   0  0  0  0  0  0  0  0  0  0  0  0
   13.6953    2.8518    7.7272 O   0  0  0  0  0  0  0  0  0  0  0  0
   15.0442    3.2489    7.5751 C   0  0  0  0  0  0  0  0  0  0  0  0
   11.7025   -0.1789    7.6336 C   0  0  0  0  0  0  0  0  0  0  0  0
   12.6014   -1.0722    7.0903 C   0  0  0  0  0  0  0  0  0  0  0  0
   13.8950   -0.6479    6.7517 C   0  0  0  0  0  0  0  0  0  0  0  0
   14.7368   -1.5548    6.2249 N   0  0  0  0  0  0  0  0  0  0  0  0
   14.3812   -2.8318    6.0167 C   0  0  0  0  0  0  0  0  0  0  0  0
   13.1400   -3.2051    6.3495 N   0  0  0  0  0  0  0  0  0  0  0  0
   12.2279   -2.3765    6.8804 C   0  0  0  0  0  0  0  0  0  0  0  0
   10.9260   -2.8138    7.1820 N   0  0  0  0  0  0  0  0  0  0  0  0
   10.6284   -4.2071    7.0654 C   0  0  0  0  0  0  0  0  0  0  0  0
   11.5002   -5.1275    7.5660 C   0  0  0  0  0  0  0  0  0  0  0  0
   11.2412   -6.5022    7.4426 C   0  0  0  0  0  0  0  0  0  0  0  0
   12.3750   -7.6853    8.0915 Cl  0  0  0  0  0  0  0  0  0  0  0  0
   10.1017   -6.9496    6.8141 C   0  0  0  0  0  0  0  0  0  0  0  0
    9.8290   -8.2552    6.6812 F   0  0  0  0  0  0  0  0  0  0  0  0
    9.2197   -5.9947    6.3084 C   0  0  0  0  0  0  0  0  0  0  0  0
    9.4812   -4.6485    6.4332 C   0  0  0  0  0  0  0  0  0  0  0  0
 20 19  2  0
 20 21  1  0
 18 13  1  0
 18 17  2  0
 18 19  1  0
 17 16  1  0
 17 22  1  0
 22 21  2  0
 22 23  1  0
 15 14  1  0
 30 28  1  0
 30 31  2  0
 31 24  1  0
 25 24  2  0
 25 26  1  0
 13 12  2  0
 16 11  2  0
  8  7  1  0
  8  9  1  0
  9 10  1  0
  2  1  1  0
  2  3  1  0
  4  3  1  0
  4  5  1  0
  7  6  1  0
  1  6  1  0
  5  6  1  0
 28 26  2  0
 28 29  1  0
 26 27  1  0
 24 23  1  0
 12 11  1  0
 12 14  1  0
 11 10  1  0
M  CHG  1   6   1
M  END
$$$$
