
     RDKit          3D

 31 34  0  0  0  0  0  0  0  0999 V2000
    6.4498    4.8066    7.1283 C   0  0  0  0  0  0  0  0  0  0  0  0
    5.1700    4.7506    7.9095 C   0  0  0  0  0  0  0  0  0  0  0  0
    5.0962    5.7811    8.8145 O   0  0  0  0  0  0  0  0  0  0  0  0
    6.3518    6.2379    9.1291 C   0  0  0  0  0  0  0  0  0  0  0  0
    7.3865    5.1408    9.2585 C   0  0  0  0  0  0  0  0  0  0  0  0
    7.6153    4.5288    7.9773 N   0  0  0  0  0  4  0  0  0  0  0  0
    7.7326    3.0945    8.0473 C   0  0  0  0  0  0  0  0  0  0  0  0
    8.9708    2.5997    8.7216 C   0  0  0  0  0  0  0  0  0  0  0  0
    9.8765    1.7997    7.8085 C   0  0  0  0  0  0  0  0  0  0  0  0
   11.2103    1.8023    8.2789 O   0  0  0  0  0  0  0  0  0  0  0  0
   12.1526    0.9163    7.8351 C   0  0  0  0  0  0  0  0  0  0  0  0
   13.4294    1.3205    7.5449 C   0  0  0  0  0  0  0  0  0  0  0  0
   14.3893    0.4563    7.1014 C   0  0  0  0  0  0  0  0  0  0  0  0
   13.7106    2.6657    7.7235 O   0  0  0  0  0  0  0  0  0  0  0  0
   15.0343    3.1198    7.5183 C   0  0  0  0  0  0  0  0  0  0  0  0
   11.8237   -0.4330    7.6693 C   0  0  0  0  0  0  0  0  0  0  0  0
   12.7803   -1.3197    7.2220 C   0  0  0  0  0  0  0  0  0  0  0  0
   14.0771   -0.8677    6.9355 C   0  0  0  0  0  0  0  0  0  0  0  0
   14.9761   -1.7690    6.5021 N   0  0  0  0  0  0  0  0  0  0  0  0
   14.6738   -3.0660    6.3379 C   0  0  0  0  0  0  0  0  0  0  0  0
   13.4281   -3.4656    6.6192 N   0  0  0  0  0  0  0  0  0  0  0  0
   12.4611   -2.6447    7.0566 C   0  0  0  0  0  0  0  0  0  0  0  0
   11.1586   -3.1118    7.3064 N   0  0  0  0  0  0  0  0  0  0  0  0
   10.9439   -4.5220    7.3994 C   0  0  0  0  0  0  0  0  0  0  0  0
   10.0026   -5.1146    6.6116 C   0  0  0  0  0  0  0  0  0  0  0  0
    9.7573   -6.4944    6.7018 C   0  0  0  0  0  0  0  0  0  0  0  0
    8.5370   -7.2519    5.6804 Cl  0  0  0  0  0  0  0  0  0  0  0  0
   10.4619   -7.2777    7.5869 C   0  0  0  0  0  0  0  0  0  0  0  0
   10.2484   -8.5966    7.6949 F   0  0  0  0  0  0  0  0  0  0  0  0
   11.4220   -6.6558    8.3849 C   0  0  0  0  0  0  0  0  0  0  0  0
   11.6564   -5.3021    8.2906 C   0  0  0  0  0  0  0  0  0  0  0  0
 20 19  2  0
 20 21  1  0
 18 13  1  0
 18 17  2  0
 18 19  1  0
 17 16  1  0
 17 22  1  0
 22 21  2  0
 22 23  1  0
 15 14  1  0
 30 28  1  0
 30 31  2  0
 31 24  1  0
 25 24  2  0
 25 26  1  0
 13 12  2  0
 16 11  2  0
  8  7  1  0
  8  9  1  0
  9 10  1  0
  2  1  1  0
  2  3  1  0
  4  3  1  0
  4  5  1  0
  7  6  1  0
  1  6  1  0
  5  6  1  0
 28 26  2  0
 28 29  1  0
 26 27  1  0
 24 23  1  0
 12 11  1  0
 12 14  1  0
 11 10  1  0
M  CHG  1   6   1
M  END
$$$$
