
     RDKit          3D

 31 34  0  0  0  0  0  0  0  0999 V2000
    7.3039    6.0311    7.7322 C   0  0  0  0  0  0  0  0  0  0  0  0
    6.2529    5.5241    6.7888 C   0  0  0  0  0  0  0  0  0  0  0  0
    5.0267    5.4553    7.4035 O   0  0  0  0  0  0  0  0  0  0  0  0
    5.1741    5.3527    8.7644 C   0  0  0  0  0  0  0  0  0  0  0  0
    6.3255    4.4669    9.1892 C   0  0  0  0  0  0  0  0  0  0  0  0
    7.5746    5.0699    8.8088 N   0  0  0  0  0  4  0  0  0  0  0  0
    8.5222    4.1233    8.2777 C   0  0  0  0  0  0  0  0  0  0  0  0
    8.5780    2.8187    9.0039 C   0  0  0  0  0  0  0  0  0  0  0  0
    9.3809    1.7585    8.2790 C   0  0  0  0  0  0  0  0  0  0  0  0
   10.7442    2.1229    8.1849 O   0  0  0  0  0  0  0  0  0  0  0  0
   11.7174    1.2489    7.7864 C   0  0  0  0  0  0  0  0  0  0  0  0
   13.0193    1.6509    7.6406 C   0  0  0  0  0  0  0  0  0  0  0  0
   14.0102    0.7984    7.2451 C   0  0  0  0  0  0  0  0  0  0  0  0
   13.2930    2.9812    7.9161 O   0  0  0  0  0  0  0  0  0  0  0  0
   14.6251    3.4424    7.8009 C   0  0  0  0  0  0  0  0  0  0  0  0
   11.3950   -0.0856    7.5189 C   0  0  0  0  0  0  0  0  0  0  0  0
   12.3827   -0.9602    7.1182 C   0  0  0  0  0  0  0  0  0  0  0  0
   13.7046   -0.5110    6.9805 C   0  0  0  0  0  0  0  0  0  0  0  0
   14.6336   -1.4003    6.5873 N   0  0  0  0  0  0  0  0  0  0  0  0
   14.3379   -2.6830    6.3268 C   0  0  0  0  0  0  0  0  0  0  0  0
   13.0678   -3.0803    6.4669 N   0  0  0  0  0  0  0  0  0  0  0  0
   12.0701   -2.2706    6.8533 C   0  0  0  0  0  0  0  0  0  0  0  0
   10.7459   -2.7330    6.9532 N   0  0  0  0  0  0  0  0  0  0  0  0
   10.5080   -4.1417    6.9054 C   0  0  0  0  0  0  0  0  0  0  0  0
   11.3075   -4.9855    7.6173 C   0  0  0  0  0  0  0  0  0  0  0  0
   11.1082   -6.3747    7.5677 C   0  0  0  0  0  0  0  0  0  0  0  0
   12.1479   -7.4584    8.4901 Cl  0  0  0  0  0  0  0  0  0  0  0  0
   10.1017   -6.9139    6.7997 C   0  0  0  0  0  0  0  0  0  0  0  0
    9.8888   -8.2356    6.7328 F   0  0  0  0  0  0  0  0  0  0  0  0
    9.2922   -6.0366    6.0783 C   0  0  0  0  0  0  0  0  0  0  0  0
    9.4944   -4.6755    6.1321 C   0  0  0  0  0  0  0  0  0  0  0  0
 20 19  2  0
 20 21  1  0
 18 13  1  0
 18 17  2  0
 18 19  1  0
 17 16  1  0
 17 22  1  0
 22 21  2  0
 22 23  1  0
 15 14  1  0
 30 28  1  0
 30 31  2  0
 31 24  1  0
 25 24  2  0
 25 26  1  0
 13 12  2  0
 16 11  2  0
  8  7  1  0
  8  9  1  0
  9 10  1  0
  2  1  1  0
  2  3  1  0
  4  3  1  0
  4  5  1  0
  7  6  1  0
  1  6  1  0
  5  6  1  0
 28 26  2  0
 28 29  1  0
 26 27  1  0
 24 23  1  0
 12 11  1  0
 12 14  1  0
 11 10  1  0
M  CHG  1   6   1
M  END
$$$$
