
     RDKit          3D

 31 34  0  0  0  0  0  0  0  0999 V2000
    6.5353    4.9939    6.7895 C   0  0  0  0  0  0  0  0  0  0  0  0
    5.1919    4.3469    6.9568 C   0  0  0  0  0  0  0  0  0  0  0  0
    4.4336    5.0128    7.8884 O   0  0  0  0  0  0  0  0  0  0  0  0
    5.2372    5.7116    8.7545 C   0  0  0  0  0  0  0  0  0  0  0  0
    6.5035    4.9776    9.1401 C   0  0  0  0  0  0  0  0  0  0  0  0
    7.3621    4.8451    7.9939 N   0  0  0  0  0  4  0  0  0  0  0  0
    7.9854    3.5496    7.8996 C   0  0  0  0  0  0  0  0  0  0  0  0
    9.0833    3.3098    8.8845 C   0  0  0  0  0  0  0  0  0  0  0  0
    9.9058    2.0744    8.5823 C   0  0  0  0  0  0  0  0  0  0  0  0
   10.9425    2.3608    7.6638 O   0  0  0  0  0  0  0  0  0  0  0  0
   11.9069    1.4507    7.3299 C   0  0  0  0  0  0  0  0  0  0  0  0
   13.2161    1.8247    7.1757 C   0  0  0  0  0  0  0  0  0  0  0  0
   14.1985    0.9359    6.8437 C   0  0  0  0  0  0  0  0  0  0  0  0
   13.5066    3.1650    7.3742 O   0  0  0  0  0  0  0  0  0  0  0  0
   14.8510    3.5939    7.2788 C   0  0  0  0  0  0  0  0  0  0  0  0
   11.5675    0.1073    7.1391 C   0  0  0  0  0  0  0  0  0  0  0  0
   12.5464   -0.8038    6.8032 C   0  0  0  0  0  0  0  0  0  0  0  0
   13.8763   -0.3825    6.6545 C   0  0  0  0  0  0  0  0  0  0  0  0
   14.7962   -1.3070    6.3263 N   0  0  0  0  0  0  0  0  0  0  0  0
   14.4843   -2.5987    6.1396 C   0  0  0  0  0  0  0  0  0  0  0  0
   13.2069   -2.9687    6.2881 N   0  0  0  0  0  0  0  0  0  0  0  0
   12.2173   -2.1232    6.6136 C   0  0  0  0  0  0  0  0  0  0  0  0
   10.8853   -2.5598    6.7252 N   0  0  0  0  0  0  0  0  0  0  0  0
   10.6284   -3.9651    6.7760 C   0  0  0  0  0  0  0  0  0  0  0  0
   11.4899   -4.7850    7.4418 C   0  0  0  0  0  0  0  0  0  0  0  0
   11.2713   -6.1715    7.4856 C   0  0  0  0  0  0  0  0  0  0  0  0
   12.3916   -7.2242    8.3476 Cl  0  0  0  0  0  0  0  0  0  0  0  0
   10.1828   -6.7321    6.8576 C   0  0  0  0  0  0  0  0  0  0  0  0
    9.9496   -8.0518    6.8822 F   0  0  0  0  0  0  0  0  0  0  0  0
    9.3107   -5.8790    6.1816 C   0  0  0  0  0  0  0  0  0  0  0  0
    9.5322   -4.5205    6.1431 C   0  0  0  0  0  0  0  0  0  0  0  0
 20 19  2  0
 20 21  1  0
 18 13  1  0
 18 17  2  0
 18 19  1  0
 17 16  1  0
 17 22  1  0
 22 21  2  0
 22 23  1  0
 15 14  1  0
 30 28  1  0
 30 31  2  0
 31 24  1  0
 25 24  2  0
 25 26  1  0
 13 12  2  0
 16 11  2  0
  8  7  1  0
  8  9  1  0
  9 10  1  0
  2  1  1  0
  2  3  1  0
  4  3  1  0
  4  5  1  0
  7  6  1  0
  1  6  1  0
  5  6  1  0
 28 26  2  0
 28 29  1  0
 26 27  1  0
 24 23  1  0
 12 11  1  0
 12 14  1  0
 11 10  1  0
M  CHG  1   6   1
M  END
$$$$
