
     RDKit          3D

 31 34  0  0  0  0  0  0  0  0999 V2000
    7.2222    5.4706    8.0583 C   0  0  0  0  0  0  0  0  0  0  0  0
    6.4968    5.5763    6.7491 C   0  0  0  0  0  0  0  0  0  0  0  0
    5.1766    5.9040    6.9390 O   0  0  0  0  0  0  0  0  0  0  0  0
    4.7651    5.5398    8.1968 C   0  0  0  0  0  0  0  0  0  0  0  0
    5.3291    4.2155    8.6647 C   0  0  0  0  0  0  0  0  0  0  0  0
    6.7514    4.3252    8.8475 N   0  0  0  0  0  4  0  0  0  0  0  0
    7.4750    3.1765    8.3653 C   0  0  0  0  0  0  0  0  0  0  0  0
    8.9173    3.1367    8.7536 C   0  0  0  0  0  0  0  0  0  0  0  0
    9.6219    1.8651    8.3283 C   0  0  0  0  0  0  0  0  0  0  0  0
   10.6551    2.1370    7.4016 O   0  0  0  0  0  0  0  0  0  0  0  0
   11.6721    1.2584    7.1491 C   0  0  0  0  0  0  0  0  0  0  0  0
   12.9733    1.6799    7.0667 C   0  0  0  0  0  0  0  0  0  0  0  0
   14.0073    0.8234    6.8169 C   0  0  0  0  0  0  0  0  0  0  0  0
   13.2001    3.0346    7.2508 O   0  0  0  0  0  0  0  0  0  0  0  0
   14.5319    3.5108    7.2465 C   0  0  0  0  0  0  0  0  0  0  0  0
   11.3962   -0.1011    6.9698 C   0  0  0  0  0  0  0  0  0  0  0  0
   12.4277   -0.9801    6.7163 C   0  0  0  0  0  0  0  0  0  0  0  0
   13.7475   -0.5104    6.6395 C   0  0  0  0  0  0  0  0  0  0  0  0
   14.7202   -1.4049    6.3904 N   0  0  0  0  0  0  0  0  0  0  0  0
   14.4695   -2.7115    6.2157 C   0  0  0  0  0  0  0  0  0  0  0  0
   13.2002   -3.1280    6.2943 N   0  0  0  0  0  0  0  0  0  0  0  0
   12.1610   -2.3151    6.5383 C   0  0  0  0  0  0  0  0  0  0  0  0
   10.8421   -2.8010    6.5784 N   0  0  0  0  0  0  0  0  0  0  0  0
   10.6332   -4.2149    6.5506 C   0  0  0  0  0  0  0  0  0  0  0  0
   11.4871   -5.0366    7.2240 C   0  0  0  0  0  0  0  0  0  0  0  0
   11.3161   -6.4301    7.1923 C   0  0  0  0  0  0  0  0  0  0  0  0
   12.4261   -7.4850    8.0648 Cl  0  0  0  0  0  0  0  0  0  0  0  0
   10.2830   -6.9959    6.4810 C   0  0  0  0  0  0  0  0  0  0  0  0
   10.0960   -8.3223    6.4323 F   0  0  0  0  0  0  0  0  0  0  0  0
    9.4179   -6.1410    5.7983 C   0  0  0  0  0  0  0  0  0  0  0  0
    9.5925   -4.7755    5.8342 C   0  0  0  0  0  0  0  0  0  0  0  0
 20 19  2  0
 20 21  1  0
 18 13  1  0
 18 17  2  0
 18 19  1  0
 17 16  1  0
 17 22  1  0
 22 21  2  0
 22 23  1  0
 15 14  1  0
 30 28  1  0
 30 31  2  0
 31 24  1  0
 25 24  2  0
 25 26  1  0
 13 12  2  0
 16 11  2  0
  8  7  1  0
  8  9  1  0
  9 10  1  0
  2  1  1  0
  2  3  1  0
  4  3  1  0
  4  5  1  0
  7  6  1  0
  1  6  1  0
  5  6  1  0
 28 26  2  0
 28 29  1  0
 26 27  1  0
 24 23  1  0
 12 11  1  0
 12 14  1  0
 11 10  1  0
M  CHG  1   6   1
M  END
$$$$
