
     RDKit          3D

 31 34  0  0  0  0  0  0  0  0999 V2000
    7.9681    5.7116   10.1257 C   0  0  0  0  0  0  0  0  0  0  0  0
    8.5663    5.9136   11.4869 C   0  0  0  0  0  0  0  0  0  0  0  0
    8.9577    7.2176   11.6677 O   0  0  0  0  0  0  0  0  0  0  0  0
    9.1867    7.8249   10.4582 C   0  0  0  0  0  0  0  0  0  0  0  0
    9.8601    6.9279    9.4419 C   0  0  0  0  0  0  0  0  0  0  0  0
    8.9726    5.8608    9.0650 N   0  0  0  0  0  4  0  0  0  0  0  0
    9.6347    4.5862    8.9522 C   0  0  0  0  0  0  0  0  0  0  0  0
    8.8165    3.5097    8.3163 C   0  0  0  0  0  0  0  0  0  0  0  0
    9.6481    2.4383    7.6421 C   0  0  0  0  0  0  0  0  0  0  0  0
   10.9673    2.4169    8.1517 O   0  0  0  0  0  0  0  0  0  0  0  0
   11.9074    1.5167    7.7325 C   0  0  0  0  0  0  0  0  0  0  0  0
   13.2070    1.8932    7.5157 C   0  0  0  0  0  0  0  0  0  0  0  0
   14.1652    1.0142    7.0982 C   0  0  0  0  0  0  0  0  0  0  0  0
   13.5136    3.2256    7.7420 O   0  0  0  0  0  0  0  0  0  0  0  0
   14.8511    3.6557    7.5793 C   0  0  0  0  0  0  0  0  0  0  0  0
   11.5525    0.1811    7.5166 C   0  0  0  0  0  0  0  0  0  0  0  0
   12.5069   -0.7200    7.0945 C   0  0  0  0  0  0  0  0  0  0  0  0
   13.8277   -0.2965    6.8837 C   0  0  0  0  0  0  0  0  0  0  0  0
   14.7236   -1.2111    6.4723 N   0  0  0  0  0  0  0  0  0  0  0  0
   14.3965   -2.4952    6.2607 C   0  0  0  0  0  0  0  0  0  0  0  0
   13.1284   -2.8676    6.4701 N   0  0  0  0  0  0  0  0  0  0  0  0
   12.1623   -2.0316    6.8801 C   0  0  0  0  0  0  0  0  0  0  0  0
   10.8373   -2.4692    7.0536 N   0  0  0  0  0  0  0  0  0  0  0  0
   10.5751   -3.8744    7.0491 C   0  0  0  0  0  0  0  0  0  0  0  0
   11.4332   -4.7230    7.6828 C   0  0  0  0  0  0  0  0  0  0  0  0
   11.2094   -6.1093    7.6721 C   0  0  0  0  0  0  0  0  0  0  0  0
   12.3251   -7.1992    8.4929 Cl  0  0  0  0  0  0  0  0  0  0  0  0
   10.1193   -6.6408    7.0220 C   0  0  0  0  0  0  0  0  0  0  0  0
    9.8812   -7.9596    6.9946 F   0  0  0  0  0  0  0  0  0  0  0  0
    9.2509   -5.7587    6.3793 C   0  0  0  0  0  0  0  0  0  0  0  0
    9.4775   -4.4005    6.3943 C   0  0  0  0  0  0  0  0  0  0  0  0
 20 19  2  0
 20 21  1  0
 18 13  1  0
 18 17  2  0
 18 19  1  0
 17 16  1  0
 17 22  1  0
 22 21  2  0
 22 23  1  0
 15 14  1  0
 30 28  1  0
 30 31  2  0
 31 24  1  0
 25 24  2  0
 25 26  1  0
 13 12  2  0
 16 11  2  0
  8  7  1  0
  8  9  1  0
  9 10  1  0
  2  1  1  0
  2  3  1  0
  4  3  1  0
  4  5  1  0
  7  6  1  0
  1  6  1  0
  5  6  1  0
 28 26  2  0
 28 29  1  0
 26 27  1  0
 24 23  1  0
 12 11  1  0
 12 14  1  0
 11 10  1  0
M  CHG  1   6   1
M  END
$$$$
