
     RDKit          3D

 31 34  0  0  0  0  0  0  0  0999 V2000
    6.3327    4.5945    7.9850 C   0  0  0  0  0  0  0  0  0  0  0  0
    5.4465    4.7911    9.1798 C   0  0  0  0  0  0  0  0  0  0  0  0
    5.5534    6.0691    9.6712 O   0  0  0  0  0  0  0  0  0  0  0  0
    6.7549    6.6261    9.3100 C   0  0  0  0  0  0  0  0  0  0  0  0
    7.9168    5.6573    9.3589 C   0  0  0  0  0  0  0  0  0  0  0  0
    7.7540    4.6448    8.3506 N   0  0  0  0  0  4  0  0  0  0  0  0
    8.1003    3.3246    8.8123 C   0  0  0  0  0  0  0  0  0  0  0  0
    8.9087    2.5168    7.8497 C   0  0  0  0  0  0  0  0  0  0  0  0
   10.3889    2.8354    7.8886 C   0  0  0  0  0  0  0  0  0  0  0  0
   11.0917    1.9092    8.6939 O   0  0  0  0  0  0  0  0  0  0  0  0
   11.9900    1.0152    8.1804 C   0  0  0  0  0  0  0  0  0  0  0  0
   13.2938    1.3684    7.9501 C   0  0  0  0  0  0  0  0  0  0  0  0
   14.2110    0.4950    7.4393 C   0  0  0  0  0  0  0  0  0  0  0  0
   13.6488    2.6710    8.2628 O   0  0  0  0  0  0  0  0  0  0  0  0
   15.0023    3.0600    8.1323 C   0  0  0  0  0  0  0  0  0  0  0  0
   11.5869   -0.2898    7.8794 C   0  0  0  0  0  0  0  0  0  0  0  0
   12.4994   -1.1850    7.3625 C   0  0  0  0  0  0  0  0  0  0  0  0
   13.8260   -0.7858    7.1409 C   0  0  0  0  0  0  0  0  0  0  0  0
   14.6800   -1.6935    6.6355 N   0  0  0  0  0  0  0  0  0  0  0  0
   14.3064   -2.9483    6.3416 C   0  0  0  0  0  0  0  0  0  0  0  0
   13.0340   -3.2979    6.5639 N   0  0  0  0  0  0  0  0  0  0  0  0
   12.1074   -2.4665    7.0644 C   0  0  0  0  0  0  0  0  0  0  0  0
   10.7751   -2.8768    7.2480 N   0  0  0  0  0  0  0  0  0  0  0  0
   10.5008   -4.2742    7.3721 C   0  0  0  0  0  0  0  0  0  0  0  0
   11.4366   -5.1832    6.9773 C   0  0  0  0  0  0  0  0  0  0  0  0
   11.1810   -6.5611    7.0675 C   0  0  0  0  0  0  0  0  0  0  0  0
   12.3963   -7.7293    6.5531 Cl  0  0  0  0  0  0  0  0  0  0  0  0
    9.9807   -7.0232    7.5566 C   0  0  0  0  0  0  0  0  0  0  0  0
    9.7090   -8.3322    7.6534 F   0  0  0  0  0  0  0  0  0  0  0  0
    9.0345   -6.0799    7.9570 C   0  0  0  0  0  0  0  0  0  0  0  0
    9.2928   -4.7304    7.8650 C   0  0  0  0  0  0  0  0  0  0  0  0
 20 19  2  0
 20 21  1  0
 18 13  1  0
 18 17  2  0
 18 19  1  0
 17 16  1  0
 17 22  1  0
 22 21  2  0
 22 23  1  0
 15 14  1  0
 30 28  1  0
 30 31  2  0
 31 24  1  0
 25 24  2  0
 25 26  1  0
 13 12  2  0
 16 11  2  0
  8  7  1  0
  8  9  1  0
  9 10  1  0
  2  1  1  0
  2  3  1  0
  4  3  1  0
  4  5  1  0
  7  6  1  0
  1  6  1  0
  5  6  1  0
 28 26  2  0
 28 29  1  0
 26 27  1  0
 24 23  1  0
 12 11  1  0
 12 14  1  0
 11 10  1  0
M  CHG  1   6   1
M  END
$$$$
