
     RDKit          3D

 31 34  0  0  0  0  0  0  0  0999 V2000
    5.2120    3.1724    9.2759 C   0  0  0  0  0  0  0  0  0  0  0  0
    5.1434    3.1422   10.7746 C   0  0  0  0  0  0  0  0  0  0  0  0
    4.8351    4.3808   11.2816 O   0  0  0  0  0  0  0  0  0  0  0  0
    5.1829    5.3667   10.3921 C   0  0  0  0  0  0  0  0  0  0  0  0
    6.4884    5.1067    9.6715 C   0  0  0  0  0  0  0  0  0  0  0  0
    6.3506    3.9696    8.8019 N   0  0  0  0  0  4  0  0  0  0  0  0
    7.4954    3.0952    8.8267 C   0  0  0  0  0  0  0  0  0  0  0  0
    8.7300    3.6622    8.2048 C   0  0  0  0  0  0  0  0  0  0  0  0
    9.5606    2.6335    7.4659 C   0  0  0  0  0  0  0  0  0  0  0  0
   10.7681    2.3619    8.1504 O   0  0  0  0  0  0  0  0  0  0  0  0
   11.6668    1.4249    7.7212 C   0  0  0  0  0  0  0  0  0  0  0  0
   12.9755    1.7516    7.4797 C   0  0  0  0  0  0  0  0  0  0  0  0
   13.8931    0.8352    7.0517 C   0  0  0  0  0  0  0  0  0  0  0  0
   13.3350    3.0730    7.6917 O   0  0  0  0  0  0  0  0  0  0  0  0
   14.6979    3.4356    7.5846 C   0  0  0  0  0  0  0  0  0  0  0  0
   11.2590    0.1022    7.5204 C   0  0  0  0  0  0  0  0  0  0  0  0
   12.1720   -0.8363    7.0881 C   0  0  0  0  0  0  0  0  0  0  0  0
   13.5036   -0.4633    6.8518 C   0  0  0  0  0  0  0  0  0  0  0  0
   14.3578   -1.4131    6.4313 N   0  0  0  0  0  0  0  0  0  0  0  0
   13.9798   -2.6854    6.2339 C   0  0  0  0  0  0  0  0  0  0  0  0
   12.7026   -3.0092    6.4675 N   0  0  0  0  0  0  0  0  0  0  0  0
   11.7754   -2.1355    6.8885 C   0  0  0  0  0  0  0  0  0  0  0  0
   10.4384   -2.5226    7.0876 N   0  0  0  0  0  0  0  0  0  0  0  0
   10.1189   -3.9157    7.0631 C   0  0  0  0  0  0  0  0  0  0  0  0
   10.9088   -4.8010    7.7340 C   0  0  0  0  0  0  0  0  0  0  0  0
   10.6288   -6.1768    7.7053 C   0  0  0  0  0  0  0  0  0  0  0  0
   11.6567   -7.3146    8.5744 Cl  0  0  0  0  0  0  0  0  0  0  0  0
    9.5511   -6.6607    6.9997 C   0  0  0  0  0  0  0  0  0  0  0  0
    9.2603   -7.9684    6.9540 F   0  0  0  0  0  0  0  0  0  0  0  0
    8.7525   -5.7413    6.3196 C   0  0  0  0  0  0  0  0  0  0  0  0
    9.0341   -4.3938    6.3525 C   0  0  0  0  0  0  0  0  0  0  0  0
 20 19  2  0
 20 21  1  0
 18 13  1  0
 18 17  2  0
 18 19  1  0
 17 16  1  0
 17 22  1  0
 22 21  2  0
 22 23  1  0
 15 14  1  0
 30 28  1  0
 30 31  2  0
 31 24  1  0
 25 24  2  0
 25 26  1  0
 13 12  2  0
 16 11  2  0
  8  7  1  0
  8  9  1  0
  9 10  1  0
  2  1  1  0
  2  3  1  0
  4  3  1  0
  4  5  1  0
  7  6  1  0
  1  6  1  0
  5  6  1  0
 28 26  2  0
 28 29  1  0
 26 27  1  0
 24 23  1  0
 12 11  1  0
 12 14  1  0
 11 10  1  0
M  CHG  1   6   1
M  END
$$$$
