
     RDKit          3D

 31 34  0  0  0  0  0  0  0  0999 V2000
    6.5447    4.9664   10.4296 C   0  0  0  0  0  0  0  0  0  0  0  0
    5.6982    5.6797    9.4167 C   0  0  0  0  0  0  0  0  0  0  0  0
    4.4568    5.1014    9.3127 O   0  0  0  0  0  0  0  0  0  0  0  0
    4.4976    3.7932    9.7263 C   0  0  0  0  0  0  0  0  0  0  0  0
    5.7529    3.0587    9.3070 C   0  0  0  0  0  0  0  0  0  0  0  0
    6.8943    3.6111    9.9855 N   0  0  0  0  0  4  0  0  0  0  0  0
    8.0479    3.7491    9.1334 C   0  0  0  0  0  0  0  0  0  0  0  0
    8.5149    2.4785    8.5011 C   0  0  0  0  0  0  0  0  0  0  0  0
    9.8263    2.6213    7.7568 C   0  0  0  0  0  0  0  0  0  0  0  0
   10.9182    2.2170    8.5598 O   0  0  0  0  0  0  0  0  0  0  0  0
   11.8150    1.2641    8.1630 C   0  0  0  0  0  0  0  0  0  0  0  0
   13.1441    1.5583    8.0066 C   0  0  0  0  0  0  0  0  0  0  0  0
   14.0604    0.6254    7.6126 C   0  0  0  0  0  0  0  0  0  0  0  0
   13.5263    2.8642    8.2696 O   0  0  0  0  0  0  0  0  0  0  0  0
   14.8957    3.2062    8.1800 C   0  0  0  0  0  0  0  0  0  0  0  0
   11.3840   -0.0420    7.9084 C   0  0  0  0  0  0  0  0  0  0  0  0
   12.2953   -0.9968    7.5093 C   0  0  0  0  0  0  0  0  0  0  0  0
   13.6483   -0.6570    7.3605 C   0  0  0  0  0  0  0  0  0  0  0  0
   14.4998   -1.6216    6.9694 N   0  0  0  0  0  0  0  0  0  0  0  0
   14.0998   -2.8781    6.7212 C   0  0  0  0  0  0  0  0  0  0  0  0
   12.8026   -3.1703    6.8716 N   0  0  0  0  0  0  0  0  0  0  0  0
   11.8761   -2.2796    7.2570 C   0  0  0  0  0  0  0  0  0  0  0  0
   10.5195   -2.6325    7.3681 N   0  0  0  0  0  0  0  0  0  0  0  0
   10.1709   -4.0188    7.3620 C   0  0  0  0  0  0  0  0  0  0  0  0
   10.8926   -4.8994    8.1114 C   0  0  0  0  0  0  0  0  0  0  0  0
   10.5840   -6.2694    8.1034 C   0  0  0  0  0  0  0  0  0  0  0  0
   11.5237   -7.4010    9.0742 Cl  0  0  0  0  0  0  0  0  0  0  0  0
    9.5465   -6.7522    7.3391 C   0  0  0  0  0  0  0  0  0  0  0  0
    9.2299   -8.0543    7.3114 F   0  0  0  0  0  0  0  0  0  0  0  0
    8.8176   -5.8377    6.5790 C   0  0  0  0  0  0  0  0  0  0  0  0
    9.1268   -4.4958    6.5921 C   0  0  0  0  0  0  0  0  0  0  0  0
 20 19  2  0
 20 21  1  0
 18 13  1  0
 18 17  2  0
 18 19  1  0
 17 16  1  0
 17 22  1  0
 22 21  2  0
 22 23  1  0
 15 14  1  0
 30 28  1  0
 30 31  2  0
 31 24  1  0
 25 24  2  0
 25 26  1  0
 13 12  2  0
 16 11  2  0
  8  7  1  0
  8  9  1  0
  9 10  1  0
  2  1  1  0
  2  3  1  0
  4  3  1  0
  4  5  1  0
  7  6  1  0
  1  6  1  0
  5  6  1  0
 28 26  2  0
 28 29  1  0
 26 27  1  0
 24 23  1  0
 12 11  1  0
 12 14  1  0
 11 10  1  0
M  CHG  1   6   1
M  END
$$$$
