
     RDKit          3D

 31 34  0  0  0  0  0  0  0  0999 V2000
    6.4214    5.4654    8.9977 C   0  0  0  0  0  0  0  0  0  0  0  0
    6.4740    6.7526    8.2283 C   0  0  0  0  0  0  0  0  0  0  0  0
    5.4662    6.8150    7.2973 O   0  0  0  0  0  0  0  0  0  0  0  0
    5.0412    5.5539    6.9609 C   0  0  0  0  0  0  0  0  0  0  0  0
    6.1604    4.5407    6.8522 C   0  0  0  0  0  0  0  0  0  0  0  0
    6.7429    4.3124    8.1471 N   0  0  0  0  0  4  0  0  0  0  0  0
    8.1805    4.2221    8.1138 C   0  0  0  0  0  0  0  0  0  0  0  0
    8.7325    2.8835    8.4823 C   0  0  0  0  0  0  0  0  0  0  0  0
    9.8444    2.4162    7.5661 C   0  0  0  0  0  0  0  0  0  0  0  0
   10.9013    1.8297    8.3005 O   0  0  0  0  0  0  0  0  0  0  0  0
   11.7479    0.8998    7.7634 C   0  0  0  0  0  0  0  0  0  0  0  0
   13.0563    1.2017    7.4901 C   0  0  0  0  0  0  0  0  0  0  0  0
   13.9227    0.2916    6.9550 C   0  0  0  0  0  0  0  0  0  0  0  0
   13.4708    2.4909    7.7847 O   0  0  0  0  0  0  0  0  0  0  0  0
   14.8163    2.8492    7.5363 C   0  0  0  0  0  0  0  0  0  0  0  0
   11.2857   -0.3899    7.4821 C   0  0  0  0  0  0  0  0  0  0  0  0
   12.1464   -1.3215    6.9413 C   0  0  0  0  0  0  0  0  0  0  0  0
   13.4796   -0.9746    6.6757 C   0  0  0  0  0  0  0  0  0  0  0  0
   14.2816   -1.9164    6.1482 N   0  0  0  0  0  0  0  0  0  0  0  0
   13.8511   -3.1572    5.8728 C   0  0  0  0  0  0  0  0  0  0  0  0
   12.5740   -3.4566    6.1371 N   0  0  0  0  0  0  0  0  0  0  0  0
   11.6963   -2.5883    6.6624 C   0  0  0  0  0  0  0  0  0  0  0  0
   10.3557   -2.9462    6.8901 N   0  0  0  0  0  0  0  0  0  0  0  0
   10.0094   -4.3331    6.8934 C   0  0  0  0  0  0  0  0  0  0  0  0
   10.7835   -5.2203    7.5801 C   0  0  0  0  0  0  0  0  0  0  0  0
   10.4770   -6.5907    7.5789 C   0  0  0  0  0  0  0  0  0  0  0  0
   11.4846   -7.7309    8.4682 Cl  0  0  0  0  0  0  0  0  0  0  0  0
    9.3886   -7.0674    6.8848 C   0  0  0  0  0  0  0  0  0  0  0  0
    9.0726   -8.3698    6.8652 F   0  0  0  0  0  0  0  0  0  0  0  0
    8.6065   -6.1462    6.1882 C   0  0  0  0  0  0  0  0  0  0  0  0
    8.9140   -4.8040    6.1943 C   0  0  0  0  0  0  0  0  0  0  0  0
 20 19  2  0
 20 21  1  0
 18 13  1  0
 18 17  2  0
 18 19  1  0
 17 16  1  0
 17 22  1  0
 22 21  2  0
 22 23  1  0
 15 14  1  0
 30 28  1  0
 30 31  2  0
 31 24  1  0
 25 24  2  0
 25 26  1  0
 13 12  2  0
 16 11  2  0
  8  7  1  0
  8  9  1  0
  9 10  1  0
  2  1  1  0
  2  3  1  0
  4  3  1  0
  4  5  1  0
  7  6  1  0
  1  6  1  0
  5  6  1  0
 28 26  2  0
 28 29  1  0
 26 27  1  0
 24 23  1  0
 12 11  1  0
 12 14  1  0
 11 10  1  0
M  CHG  1   6   1
M  END
$$$$
