
     RDKit          3D

 31 34  0  0  0  0  0  0  0  0999 V2000
    5.1102    3.8625    8.4697 C   0  0  0  0  0  0  0  0  0  0  0  0
    4.5267    3.9128    9.8512 C   0  0  0  0  0  0  0  0  0  0  0  0
    4.4100    5.2079   10.2931 O   0  0  0  0  0  0  0  0  0  0  0  0
    5.2939    6.0246    9.6328 C   0  0  0  0  0  0  0  0  0  0  0  0
    6.6453    5.3892    9.3858 C   0  0  0  0  0  0  0  0  0  0  0  0
    6.5123    4.2987    8.4577 N   0  0  0  0  0  4  0  0  0  0  0  0
    7.2979    3.1468    8.8206 C   0  0  0  0  0  0  0  0  0  0  0  0
    8.7758    3.3365    8.7091 C   0  0  0  0  0  0  0  0  0  0  0  0
    9.4991    2.1274    8.1530 C   0  0  0  0  0  0  0  0  0  0  0  0
   10.8826    2.1799    8.4421 O   0  0  0  0  0  0  0  0  0  0  0  0
   11.7670    1.2363    7.9983 C   0  0  0  0  0  0  0  0  0  0  0  0
   13.0904    1.5353    7.8057 C   0  0  0  0  0  0  0  0  0  0  0  0
   13.9943    0.6116    7.3644 C   0  0  0  0  0  0  0  0  0  0  0  0
   13.4797    2.8362    8.0824 O   0  0  0  0  0  0  0  0  0  0  0  0
   14.8121    3.0782    8.4904 C   0  0  0  0  0  0  0  0  0  0  0  0
   11.3292   -0.0650    7.7315 C   0  0  0  0  0  0  0  0  0  0  0  0
   12.2280   -1.0105    7.2848 C   0  0  0  0  0  0  0  0  0  0  0  0
   13.5753   -0.6660    7.1001 C   0  0  0  0  0  0  0  0  0  0  0  0
   14.4148   -1.6215    6.6631 N   0  0  0  0  0  0  0  0  0  0  0  0
   14.0079   -2.8734    6.4026 C   0  0  0  0  0  0  0  0  0  0  0  0
   12.7164   -3.1702    6.5882 N   0  0  0  0  0  0  0  0  0  0  0  0
   11.8019   -2.2886    7.0204 C   0  0  0  0  0  0  0  0  0  0  0  0
   10.4498   -2.6454    7.1673 N   0  0  0  0  0  0  0  0  0  0  0  0
   10.0942   -4.0274    7.0824 C   0  0  0  0  0  0  0  0  0  0  0  0
   11.0219   -4.9821    7.3754 C   0  0  0  0  0  0  0  0  0  0  0  0
   10.7032   -6.3461    7.2765 C   0  0  0  0  0  0  0  0  0  0  0  0
   11.9096   -7.5737    7.6556 Cl  0  0  0  0  0  0  0  0  0  0  0  0
    9.4477   -6.7483    6.8821 C   0  0  0  0  0  0  0  0  0  0  0  0
    9.1157   -8.0428    6.7782 F   0  0  0  0  0  0  0  0  0  0  0  0
    8.5100   -5.7588    6.5870 C   0  0  0  0  0  0  0  0  0  0  0  0
    8.8306   -4.4232    6.6861 C   0  0  0  0  0  0  0  0  0  0  0  0
 20 19  2  0
 20 21  1  0
 18 13  1  0
 18 17  2  0
 18 19  1  0
 17 16  1  0
 17 22  1  0
 22 21  2  0
 22 23  1  0
 15 14  1  0
 30 28  1  0
 30 31  2  0
 31 24  1  0
 25 24  2  0
 25 26  1  0
 13 12  2  0
 16 11  2  0
  8  7  1  0
  8  9  1  0
  9 10  1  0
  2  1  1  0
  2  3  1  0
  4  3  1  0
  4  5  1  0
  7  6  1  0
  1  6  1  0
  5  6  1  0
 28 26  2  0
 28 29  1  0
 26 27  1  0
 24 23  1  0
 12 11  1  0
 12 14  1  0
 11 10  1  0
M  CHG  1   6   1
M  END
$$$$
