
     RDKit          3D

 31 34  0  0  0  0  0  0  0  0999 V2000
    5.3613    4.5993    7.6583 C   0  0  0  0  0  0  0  0  0  0  0  0
    4.3583    3.8166    6.8628 C   0  0  0  0  0  0  0  0  0  0  0  0
    3.4168    3.2415    7.6809 O   0  0  0  0  0  0  0  0  0  0  0  0
    3.9114    3.0875    8.9520 C   0  0  0  0  0  0  0  0  0  0  0  0
    5.3644    2.6657    8.9954 C   0  0  0  0  0  0  0  0  0  0  0  0
    6.1974    3.7227    8.4883 N   0  0  0  0  0  4  0  0  0  0  0  0
    7.2580    3.2489    7.6359 C   0  0  0  0  0  0  0  0  0  0  0  0
    8.4922    2.8122    8.3560 C   0  0  0  0  0  0  0  0  0  0  0  0
    9.6408    2.4680    7.4306 C   0  0  0  0  0  0  0  0  0  0  0  0
   10.8051    2.1339    8.1610 O   0  0  0  0  0  0  0  0  0  0  0  0
   11.7290    1.2333    7.7081 C   0  0  0  0  0  0  0  0  0  0  0  0
   13.0353    1.5941    7.5056 C   0  0  0  0  0  0  0  0  0  0  0  0
   13.9778    0.7143    7.0552 C   0  0  0  0  0  0  0  0  0  0  0  0
   13.3658    2.9112    7.7820 O   0  0  0  0  0  0  0  0  0  0  0  0
   14.7175    3.3133    7.6740 C   0  0  0  0  0  0  0  0  0  0  0  0
   11.3501   -0.0866    7.4420 C   0  0  0  0  0  0  0  0  0  0  0  0
   12.2884   -0.9883    6.9862 C   0  0  0  0  0  0  0  0  0  0  0  0
   13.6167   -0.5810    6.7915 C   0  0  0  0  0  0  0  0  0  0  0  0
   14.4962   -1.4956    6.3458 N   0  0  0  0  0  0  0  0  0  0  0  0
   14.1461   -2.7646    6.0860 C   0  0  0  0  0  0  0  0  0  0  0  0
   12.8713   -3.1216    6.2812 N   0  0  0  0  0  0  0  0  0  0  0  0
   11.9203   -2.2844    6.7225 C   0  0  0  0  0  0  0  0  0  0  0  0
   10.5875   -2.7042    6.8794 N   0  0  0  0  0  0  0  0  0  0  0  0
   10.3204   -4.1038    6.9940 C   0  0  0  0  0  0  0  0  0  0  0  0
   11.0527   -4.9924    6.2647 C   0  0  0  0  0  0  0  0  0  0  0  0
   10.7932   -6.3703    6.3426 C   0  0  0  0  0  0  0  0  0  0  0  0
   11.7442   -7.5120    5.3946 Cl  0  0  0  0  0  0  0  0  0  0  0  0
    9.7945   -6.8530    7.1568 C   0  0  0  0  0  0  0  0  0  0  0  0
    9.5241   -8.1626    7.2504 F   0  0  0  0  0  0  0  0  0  0  0  0
    9.0552   -5.9305    7.8969 C   0  0  0  0  0  0  0  0  0  0  0  0
    9.3157   -4.5808    7.8147 C   0  0  0  0  0  0  0  0  0  0  0  0
 20 19  2  0
 20 21  1  0
 18 13  1  0
 18 17  2  0
 18 19  1  0
 17 16  1  0
 17 22  1  0
 22 21  2  0
 22 23  1  0
 15 14  1  0
 30 28  1  0
 30 31  2  0
 31 24  1  0
 25 24  2  0
 25 26  1  0
 13 12  2  0
 16 11  2  0
  8  7  1  0
  8  9  1  0
  9 10  1  0
  2  1  1  0
  2  3  1  0
  4  3  1  0
  4  5  1  0
  7  6  1  0
  1  6  1  0
  5  6  1  0
 28 26  2  0
 28 29  1  0
 26 27  1  0
 24 23  1  0
 12 11  1  0
 12 14  1  0
 11 10  1  0
M  CHG  1   6   1
M  END
$$$$
