
     RDKit          3D

 31 34  0  0  0  0  0  0  0  0999 V2000
    7.1976    6.3421    8.2039 C   0  0  0  0  0  0  0  0  0  0  0  0
    6.0588    6.1492    7.2460 C   0  0  0  0  0  0  0  0  0  0  0  0
    4.8580    6.0874    7.9096 O   0  0  0  0  0  0  0  0  0  0  0  0
    5.0460    5.6976    9.2123 C   0  0  0  0  0  0  0  0  0  0  0  0
    6.1032    4.6281    9.3835 C   0  0  0  0  0  0  0  0  0  0  0  0
    7.3976    5.1604    9.0525 N   0  0  0  0  0  4  0  0  0  0  0  0
    8.2079    4.2461    8.2888 C   0  0  0  0  0  0  0  0  0  0  0  0
    8.5524    2.9751    8.9949 C   0  0  0  0  0  0  0  0  0  0  0  0
    9.3684    2.0180    8.1510 C   0  0  0  0  0  0  0  0  0  0  0  0
   10.7539    2.2669    8.2882 O   0  0  0  0  0  0  0  0  0  0  0  0
   11.7092    1.3894    7.8559 C   0  0  0  0  0  0  0  0  0  0  0  0
   13.0059    1.7874    7.6612 C   0  0  0  0  0  0  0  0  0  0  0  0
   13.9792    0.9312    7.2312 C   0  0  0  0  0  0  0  0  0  0  0  0
   13.2934    3.1174    7.9236 O   0  0  0  0  0  0  0  0  0  0  0  0
   14.6402    3.5469    7.8784 C   0  0  0  0  0  0  0  0  0  0  0  0
   11.3734    0.0553    7.6033 C   0  0  0  0  0  0  0  0  0  0  0  0
   12.3432   -0.8230    7.1682 C   0  0  0  0  0  0  0  0  0  0  0  0
   13.6604   -0.3778    6.9809 C   0  0  0  0  0  0  0  0  0  0  0  0
   14.5717   -1.2705    6.5555 N   0  0  0  0  0  0  0  0  0  0  0  0
   14.2630   -2.5529    6.3088 C   0  0  0  0  0  0  0  0  0  0  0  0
   12.9979   -2.9463    6.4965 N   0  0  0  0  0  0  0  0  0  0  0  0
   12.0174   -2.1330    6.9179 C   0  0  0  0  0  0  0  0  0  0  0  0
   10.6966   -2.5913    7.0675 N   0  0  0  0  0  0  0  0  0  0  0  0
   10.4461   -3.9960    6.9794 C   0  0  0  0  0  0  0  0  0  0  0  0
   11.2172   -4.8649    7.6922 C   0  0  0  0  0  0  0  0  0  0  0  0
   11.0055   -6.2504    7.6038 C   0  0  0  0  0  0  0  0  0  0  0  0
   12.0086   -7.3667    8.5278 Cl  0  0  0  0  0  0  0  0  0  0  0  0
   10.0151   -6.7604    6.7960 C   0  0  0  0  0  0  0  0  0  0  0  0
    9.7910   -8.0778    6.6915 F   0  0  0  0  0  0  0  0  0  0  0  0
    9.2346   -5.8575    6.0741 C   0  0  0  0  0  0  0  0  0  0  0  0
    9.4488   -4.5004    6.1662 C   0  0  0  0  0  0  0  0  0  0  0  0
 20 19  2  0
 20 21  1  0
 18 13  1  0
 18 17  2  0
 18 19  1  0
 17 16  1  0
 17 22  1  0
 22 21  2  0
 22 23  1  0
 15 14  1  0
 30 28  1  0
 30 31  2  0
 31 24  1  0
 25 24  2  0
 25 26  1  0
 13 12  2  0
 16 11  2  0
  8  7  1  0
  8  9  1  0
  9 10  1  0
  2  1  1  0
  2  3  1  0
  4  3  1  0
  4  5  1  0
  7  6  1  0
  1  6  1  0
  5  6  1  0
 28 26  2  0
 28 29  1  0
 26 27  1  0
 24 23  1  0
 12 11  1  0
 12 14  1  0
 11 10  1  0
M  CHG  1   6   1
M  END
$$$$
