
     RDKit          3D

 31 34  0  0  0  0  0  0  0  0999 V2000
    6.0708    3.6655    9.0754 C   0  0  0  0  0  0  0  0  0  0  0  0
    5.5376    3.0920   10.3554 C   0  0  0  0  0  0  0  0  0  0  0  0
    5.0723    4.0819   11.1860 O   0  0  0  0  0  0  0  0  0  0  0  0
    5.6694    5.2816   10.8888 C   0  0  0  0  0  0  0  0  0  0  0  0
    7.1375    5.1636   10.5399 C   0  0  0  0  0  0  0  0  0  0  0  0
    7.2913    4.4504    9.3005 N   0  0  0  0  0  4  0  0  0  0  0  0
    8.3809    3.5080    9.3205 C   0  0  0  0  0  0  0  0  0  0  0  0
    9.4564    3.7730    8.3177 C   0  0  0  0  0  0  0  0  0  0  0  0
   10.0728    2.5128    7.7467 C   0  0  0  0  0  0  0  0  0  0  0  0
   11.2558    2.1621    8.4380 O   0  0  0  0  0  0  0  0  0  0  0  0
   12.1323    1.2209    7.9734 C   0  0  0  0  0  0  0  0  0  0  0  0
   13.4341    1.5395    7.6880 C   0  0  0  0  0  0  0  0  0  0  0  0
   14.3298    0.6188    7.2242 C   0  0  0  0  0  0  0  0  0  0  0  0
   13.8104    2.8574    7.8936 O   0  0  0  0  0  0  0  0  0  0  0  0
   15.1876    3.1711    7.9657 C   0  0  0  0  0  0  0  0  0  0  0  0
   11.7083   -0.0979    7.7808 C   0  0  0  0  0  0  0  0  0  0  0  0
   12.5989   -1.0407    7.3126 C   0  0  0  0  0  0  0  0  0  0  0  0
   13.9242   -0.6759    7.0319 C   0  0  0  0  0  0  0  0  0  0  0  0
   14.7564   -1.6296    6.5775 N   0  0  0  0  0  0  0  0  0  0  0  0
   14.3626   -2.8982    6.3875 C   0  0  0  0  0  0  0  0  0  0  0  0
   13.0920   -3.2142    6.6638 N   0  0  0  0  0  0  0  0  0  0  0  0
   12.1863   -2.3360    7.1208 C   0  0  0  0  0  0  0  0  0  0  0  0
   10.8543   -2.7147    7.3645 N   0  0  0  0  0  0  0  0  0  0  0  0
   10.4990   -4.0925    7.2273 C   0  0  0  0  0  0  0  0  0  0  0  0
   11.2687   -5.0498    7.8181 C   0  0  0  0  0  0  0  0  0  0  0  0
   10.9533   -6.4111    7.6780 C   0  0  0  0  0  0  0  0  0  0  0  0
   11.9552   -7.6422    8.4440 Cl  0  0  0  0  0  0  0  0  0  0  0  0
    9.8606   -6.8077    6.9417 C   0  0  0  0  0  0  0  0  0  0  0  0
    9.5361   -8.0994    6.7903 F   0  0  0  0  0  0  0  0  0  0  0  0
    9.0831   -5.8155    6.3446 C   0  0  0  0  0  0  0  0  0  0  0  0
    9.3993   -4.4828    6.4866 C   0  0  0  0  0  0  0  0  0  0  0  0
 20 19  2  0
 20 21  1  0
 18 13  1  0
 18 17  2  0
 18 19  1  0
 17 16  1  0
 17 22  1  0
 22 21  2  0
 22 23  1  0
 15 14  1  0
 30 28  1  0
 30 31  2  0
 31 24  1  0
 25 24  2  0
 25 26  1  0
 13 12  2  0
 16 11  2  0
  8  7  1  0
  8  9  1  0
  9 10  1  0
  2  1  1  0
  2  3  1  0
  4  3  1  0
  4  5  1  0
  7  6  1  0
  1  6  1  0
  5  6  1  0
 28 26  2  0
 28 29  1  0
 26 27  1  0
 24 23  1  0
 12 11  1  0
 12 14  1  0
 11 10  1  0
M  CHG  1   6   1
M  END
$$$$
