
     RDKit          3D

 31 34  0  0  0  0  0  0  0  0999 V2000
    7.3038    5.6670   10.4262 C   0  0  0  0  0  0  0  0  0  0  0  0
    7.7215    7.0329    9.9664 C   0  0  0  0  0  0  0  0  0  0  0  0
    6.7635    7.5994    9.1617 O   0  0  0  0  0  0  0  0  0  0  0  0
    5.9819    6.6292    8.5855 C   0  0  0  0  0  0  0  0  0  0  0  0
    6.7521    5.3989    8.1567 C   0  0  0  0  0  0  0  0  0  0  0  0
    7.2602    4.7106    9.3128 N   0  0  0  0  0  4  0  0  0  0  0  0
    8.6071    4.2294    9.1393 C   0  0  0  0  0  0  0  0  0  0  0  0
    8.8202    3.3901    7.9216 C   0  0  0  0  0  0  0  0  0  0  0  0
    9.5685    2.1029    8.1993 C   0  0  0  0  0  0  0  0  0  0  0  0
   10.9661    2.3181    8.2268 O   0  0  0  0  0  0  0  0  0  0  0  0
   11.8635    1.4131    7.7313 C   0  0  0  0  0  0  0  0  0  0  0  0
   13.1611    1.7672    7.4695 C   0  0  0  0  0  0  0  0  0  0  0  0
   14.0772    0.8829    6.9757 C   0  0  0  0  0  0  0  0  0  0  0  0
   13.5109    3.0823    7.7315 O   0  0  0  0  0  0  0  0  0  0  0  0
   14.8770    3.4466    7.6914 C   0  0  0  0  0  0  0  0  0  0  0  0
   11.4658    0.0956    7.4818 C   0  0  0  0  0  0  0  0  0  0  0  0
   12.3774   -0.8106    6.9828 C   0  0  0  0  0  0  0  0  0  0  0  0
   13.6976   -0.4102    6.7277 C   0  0  0  0  0  0  0  0  0  0  0  0
   14.5508   -1.3289    6.2415 N   0  0  0  0  0  0  0  0  0  0  0  0
   14.1824   -2.5958    5.9970 C   0  0  0  0  0  0  0  0  0  0  0  0
   12.9161   -2.9463    6.2501 N   0  0  0  0  0  0  0  0  0  0  0  0
   11.9907   -2.1045    6.7352 C   0  0  0  0  0  0  0  0  0  0  0  0
   10.6643   -2.5174    6.9527 N   0  0  0  0  0  0  0  0  0  0  0  0
   10.3539   -3.9082    6.8403 C   0  0  0  0  0  0  0  0  0  0  0  0
   11.1875   -4.8326    7.3958 C   0  0  0  0  0  0  0  0  0  0  0  0
   10.9161   -6.2055    7.2784 C   0  0  0  0  0  0  0  0  0  0  0  0
   12.0004   -7.3937    7.9984 Cl  0  0  0  0  0  0  0  0  0  0  0  0
    9.8031   -6.6469    6.6004 C   0  0  0  0  0  0  0  0  0  0  0  0
    9.5195   -7.9507    6.4718 F   0  0  0  0  0  0  0  0  0  0  0  0
    8.9601   -5.6880    6.0388 C   0  0  0  0  0  0  0  0  0  0  0  0
    9.2334   -4.3437    6.1582 C   0  0  0  0  0  0  0  0  0  0  0  0
 20 19  2  0
 20 21  1  0
 18 13  1  0
 18 17  2  0
 18 19  1  0
 17 16  1  0
 17 22  1  0
 22 21  2  0
 22 23  1  0
 15 14  1  0
 30 28  1  0
 30 31  2  0
 31 24  1  0
 25 24  2  0
 25 26  1  0
 13 12  2  0
 16 11  2  0
  8  7  1  0
  8  9  1  0
  9 10  1  0
  2  1  1  0
  2  3  1  0
  4  3  1  0
  4  5  1  0
  7  6  1  0
  1  6  1  0
  5  6  1  0
 28 26  2  0
 28 29  1  0
 26 27  1  0
 24 23  1  0
 12 11  1  0
 12 14  1  0
 11 10  1  0
M  CHG  1   6   1
M  END
$$$$
