
     RDKit          3D

 31 34  0  0  0  0  0  0  0  0999 V2000
    5.9373    0.5120    8.4638 C   0  0  0  0  0  0  0  0  0  0  0  0
    5.7032    0.1178    9.8925 C   0  0  0  0  0  0  0  0  0  0  0  0
    5.0663    1.1185   10.5848 O   0  0  0  0  0  0  0  0  0  0  0  0
    5.2837    2.3340    9.9852 C   0  0  0  0  0  0  0  0  0  0  0  0
    6.6889    2.5090    9.4506 C   0  0  0  0  0  0  0  0  0  0  0  0
    6.9136    1.6035    8.3560 N   0  0  0  0  0  4  0  0  0  0  0  0
    8.2154    0.9871    8.3888 C   0  0  0  0  0  0  0  0  0  0  0  0
    9.3223    1.8851    8.8370 C   0  0  0  0  0  0  0  0  0  0  0  0
    9.8399    2.7968    7.7439 C   0  0  0  0  0  0  0  0  0  0  0  0
   11.2492    2.9064    7.7922 O   0  0  0  0  0  0  0  0  0  0  0  0
   12.0820    1.8524    7.5363 C   0  0  0  0  0  0  0  0  0  0  0  0
   13.4342    2.0295    7.4024 C   0  0  0  0  0  0  0  0  0  0  0  0
   14.2877    0.9943    7.1479 C   0  0  0  0  0  0  0  0  0  0  0  0
   13.9074    3.3249    7.5388 O   0  0  0  0  0  0  0  0  0  0  0  0
   15.2993    3.5569    7.4445 C   0  0  0  0  0  0  0  0  0  0  0  0
   11.5598    0.5614    7.4063 C   0  0  0  0  0  0  0  0  0  0  0  0
   12.4069   -0.4957    7.1488 C   0  0  0  0  0  0  0  0  0  0  0  0
   13.7861   -0.2744    7.0187 C   0  0  0  0  0  0  0  0  0  0  0  0
   14.5727   -1.3359    6.7678 N   0  0  0  0  0  0  0  0  0  0  0  0
   14.0850   -2.5794    6.6400 C   0  0  0  0  0  0  0  0  0  0  0  0
   12.7650   -2.7574    6.7690 N   0  0  0  0  0  0  0  0  0  0  0  0
   11.8982   -1.7643    7.0192 C   0  0  0  0  0  0  0  0  0  0  0  0
   10.5156   -2.0025    7.1131 N   0  0  0  0  0  0  0  0  0  0  0  0
   10.0401   -3.3412    6.9546 C   0  0  0  0  0  0  0  0  0  0  0  0
   10.9324   -4.3661    6.8479 C   0  0  0  0  0  0  0  0  0  0  0  0
   10.4898   -5.6866    6.6680 C   0  0  0  0  0  0  0  0  0  0  0  0
   11.6508   -7.0053    6.5294 Cl  0  0  0  0  0  0  0  0  0  0  0  0
    9.1461   -5.9744    6.5958 C   0  0  0  0  0  0  0  0  0  0  0  0
    8.6951   -7.2248    6.4238 F   0  0  0  0  0  0  0  0  0  0  0  0
    8.2465   -4.9143    6.7076 C   0  0  0  0  0  0  0  0  0  0  0  0
    8.6886   -3.6222    6.8836 C   0  0  0  0  0  0  0  0  0  0  0  0
 20 19  2  0
 20 21  1  0
 18 13  1  0
 18 17  2  0
 18 19  1  0
 17 16  1  0
 17 22  1  0
 22 21  2  0
 22 23  1  0
 15 14  1  0
 30 28  1  0
 30 31  2  0
 31 24  1  0
 25 24  2  0
 25 26  1  0
 13 12  2  0
 16 11  2  0
  8  7  1  0
  8  9  1  0
  9 10  1  0
  2  1  1  0
  2  3  1  0
  4  3  1  0
  4  5  1  0
  7  6  1  0
  1  6  1  0
  5  6  1  0
 28 26  2  0
 28 29  1  0
 26 27  1  0
 24 23  1  0
 12 11  1  0
 12 14  1  0
 11 10  1  0
M  CHG  1   6   1
M  END
$$$$
