
     RDKit          3D

 31 34  0  0  0  0  0  0  0  0999 V2000
    6.9074    5.2195    9.7793 C   0  0  0  0  0  0  0  0  0  0  0  0
    6.1329    6.0959    8.8394 C   0  0  0  0  0  0  0  0  0  0  0  0
    4.8261    5.6848    8.7417 O   0  0  0  0  0  0  0  0  0  0  0  0
    4.7114    4.3580    9.0744 C   0  0  0  0  0  0  0  0  0  0  0  0
    5.8526    3.5009    8.5707 C   0  0  0  0  0  0  0  0  0  0  0  0
    7.0714    3.8622    9.2434 N   0  0  0  0  0  4  0  0  0  0  0  0
    8.2115    3.9093    8.3637 C   0  0  0  0  0  0  0  0  0  0  0  0
    8.7756    2.5749    7.9978 C   0  0  0  0  0  0  0  0  0  0  0  0
   10.0463    2.6611    7.1781 C   0  0  0  0  0  0  0  0  0  0  0  0
   11.1599    2.1821    7.9067 O   0  0  0  0  0  0  0  0  0  0  0  0
   12.0115    1.2316    7.4156 C   0  0  0  0  0  0  0  0  0  0  0  0
   13.3209    1.5243    7.1371 C   0  0  0  0  0  0  0  0  0  0  0  0
   14.1922    0.5937    6.6472 C   0  0  0  0  0  0  0  0  0  0  0  0
   13.7311    2.8259    7.3776 O   0  0  0  0  0  0  0  0  0  0  0  0
   15.0765    3.1769    7.1188 C   0  0  0  0  0  0  0  0  0  0  0  0
   11.5535   -0.0702    7.1880 C   0  0  0  0  0  0  0  0  0  0  0  0
   12.4192   -1.0225    6.6932 C   0  0  0  0  0  0  0  0  0  0  0  0
   13.7532   -0.6845    6.4206 C   0  0  0  0  0  0  0  0  0  0  0  0
   14.5603   -1.6466    5.9394 N   0  0  0  0  0  0  0  0  0  0  0  0
   14.1338   -2.8991    5.7157 C   0  0  0  0  0  0  0  0  0  0  0  0
   12.8557   -3.1896    5.9853 N   0  0  0  0  0  0  0  0  0  0  0  0
   11.9733   -2.3012    6.4671 C   0  0  0  0  0  0  0  0  0  0  0  0
   10.6321   -2.6519    6.7024 N   0  0  0  0  0  0  0  0  0  0  0  0
   10.2820   -4.0376    6.7285 C   0  0  0  0  0  0  0  0  0  0  0  0
   11.1204   -4.9342    7.3210 C   0  0  0  0  0  0  0  0  0  0  0  0
   10.8095   -6.3036    7.3385 C   0  0  0  0  0  0  0  0  0  0  0  0
   11.9002   -7.4561    8.1056 Cl  0  0  0  0  0  0  0  0  0  0  0  0
    9.6521   -6.7696    6.7582 C   0  0  0  0  0  0  0  0  0  0  0  0
    9.3302   -8.0708    6.7592 F   0  0  0  0  0  0  0  0  0  0  0  0
    8.8050   -5.8388    6.1570 C   0  0  0  0  0  0  0  0  0  0  0  0
    9.1172   -4.4977    6.1439 C   0  0  0  0  0  0  0  0  0  0  0  0
 20 19  2  0
 20 21  1  0
 18 13  1  0
 18 17  2  0
 18 19  1  0
 17 16  1  0
 17 22  1  0
 22 21  2  0
 22 23  1  0
 15 14  1  0
 30 28  1  0
 30 31  2  0
 31 24  1  0
 25 24  2  0
 25 26  1  0
 13 12  2  0
 16 11  2  0
  8  7  1  0
  8  9  1  0
  9 10  1  0
  2  1  1  0
  2  3  1  0
  4  3  1  0
  4  5  1  0
  7  6  1  0
  1  6  1  0
  5  6  1  0
 28 26  2  0
 28 29  1  0
 26 27  1  0
 24 23  1  0
 12 11  1  0
 12 14  1  0
 11 10  1  0
M  CHG  1   6   1
M  END
$$$$
