
     RDKit          3D

 31 34  0  0  0  0  0  0  0  0999 V2000
    6.9859    5.7396    9.2886 C   0  0  0  0  0  0  0  0  0  0  0  0
    7.0642    6.7469    8.1792 C   0  0  0  0  0  0  0  0  0  0  0  0
    5.8790    6.8170    7.4888 O   0  0  0  0  0  0  0  0  0  0  0  0
    5.1685    5.6510    7.6301 C   0  0  0  0  0  0  0  0  0  0  0  0
    6.0279    4.4053    7.6068 C   0  0  0  0  0  0  0  0  0  0  0  0
    6.8728    4.3704    8.7701 N   0  0  0  0  0  4  0  0  0  0  0  0
    8.2155    3.9342    8.4823 C   0  0  0  0  0  0  0  0  0  0  0  0
    8.6687    2.7448    9.2649 C   0  0  0  0  0  0  0  0  0  0  0  0
    9.3634    1.6963    8.4210 C   0  0  0  0  0  0  0  0  0  0  0  0
   10.6935    2.0754    8.1249 O   0  0  0  0  0  0  0  0  0  0  0  0
   11.6580    1.1732    7.7704 C   0  0  0  0  0  0  0  0  0  0  0  0
   12.9659    1.5523    7.6177 C   0  0  0  0  0  0  0  0  0  0  0  0
   13.9484    0.6715    7.2656 C   0  0  0  0  0  0  0  0  0  0  0  0
   13.2550    2.8893    7.8394 O   0  0  0  0  0  0  0  0  0  0  0  0
   14.5931    3.3291    7.7116 C   0  0  0  0  0  0  0  0  0  0  0  0
   11.3201   -0.1671    7.5565 C   0  0  0  0  0  0  0  0  0  0  0  0
   12.2992   -1.0702    7.2000 C   0  0  0  0  0  0  0  0  0  0  0  0
   13.6277   -0.6438    7.0536 C   0  0  0  0  0  0  0  0  0  0  0  0
   14.5478   -1.5605    6.7048 N   0  0  0  0  0  0  0  0  0  0  0  0
   14.2373   -2.8491    6.4958 C   0  0  0  0  0  0  0  0  0  0  0  0
   12.9612   -3.2241    6.6429 N   0  0  0  0  0  0  0  0  0  0  0  0
   11.9715   -2.3864    6.9878 C   0  0  0  0  0  0  0  0  0  0  0  0
   10.6408   -2.8274    7.0969 N   0  0  0  0  0  0  0  0  0  0  0  0
   10.3911   -4.2320    7.1877 C   0  0  0  0  0  0  0  0  0  0  0  0
   11.2916   -5.0380    7.8180 C   0  0  0  0  0  0  0  0  0  0  0  0
   11.0798   -6.4239    7.8993 C   0  0  0  0  0  0  0  0  0  0  0  0
   12.2504   -7.4587    8.7148 Cl  0  0  0  0  0  0  0  0  0  0  0  0
    9.9588   -6.9978    7.3448 C   0  0  0  0  0  0  0  0  0  0  0  0
    9.7311   -8.3173    7.4065 F   0  0  0  0  0  0  0  0  0  0  0  0
    9.0471   -6.1588    6.7043 C   0  0  0  0  0  0  0  0  0  0  0  0
    9.2622   -4.8008    6.6286 C   0  0  0  0  0  0  0  0  0  0  0  0
 20 19  2  0
 20 21  1  0
 18 13  1  0
 18 17  2  0
 18 19  1  0
 17 16  1  0
 17 22  1  0
 22 21  2  0
 22 23  1  0
 15 14  1  0
 30 28  1  0
 30 31  2  0
 31 24  1  0
 25 24  2  0
 25 26  1  0
 13 12  2  0
 16 11  2  0
  8  7  1  0
  8  9  1  0
  9 10  1  0
  2  1  1  0
  2  3  1  0
  4  3  1  0
  4  5  1  0
  7  6  1  0
  1  6  1  0
  5  6  1  0
 28 26  2  0
 28 29  1  0
 26 27  1  0
 24 23  1  0
 12 11  1  0
 12 14  1  0
 11 10  1  0
M  CHG  1   6   1
M  END
$$$$
